# RCH package for  MODFLOW-USG, generated by Flopy.
         3        50
         1        -1 # Stress period 1
INTERNAL               1 (1499E15.6) -1 #rech_1                        
   5.875200E-05   5.875200E-05   5.875200E-05   5.875200E-05   5.875200E-05   5.875200E-05   5.875200E-05   5.875200E-05   5.875200E-05   5.875200E-05   5.875200E-05   5.875200E-05   5.875200E-05   5.875200E-05   5.875200E-05   5.875200E-05   5.875200E-05   5.875200E-05   5.875200E-05   5.875200E-05   5.875200E-05   5.875200E-05   5.875200E-05   5.875200E-05   5.875200E-05   5.875200E-05   5.875200E-05   5.875200E-05   5.875200E-05   5.875200E-05   5.875200E-05   5.875200E-05   5.875200E-05   5.875200E-05   5.875200E-05   5.875200E-05   5.875200E-05   5.875200E-05   5.875200E-05   5.875200E-05   5.875200E-05   5.875200E-05   5.875200E-05   5.875200E-05   5.875200E-05   5.875200E-05   5.875200E-05   5.875200E-05   5.875200E-05   5.875200E-05   5.875200E-05   5.875200E-05   5.875200E-05   5.875200E-05   5.875200E-05   5.875200E-05   5.875200E-05   5.875200E-05   5.875200E-05   5.875200E-05   5.875200E-05   5.875200E-05   5.875200E-05   5.875200E-05   5.875200E-05   5.875200E-05   5.875200E-05   5.875200E-05   5.875200E-05   5.875200E-05   5.875200E-05   5.875200E-05   5.875200E-05   5.875200E-05   5.875200E-05   5.875200E-05   5.875200E-05   5.875200E-05   5.875200E-05   5.875200E-05   5.875200E-05   5.875200E-05   5.875200E-05   5.875200E-05   5.875200E-05   5.875200E-05   5.875200E-05   5.875200E-05   5.875200E-05   5.875200E-05   5.875200E-05   5.875200E-05   5.875200E-05   5.875200E-05   5.875200E-05   5.875200E-05   5.875200E-05   5.875200E-05   5.875200E-05   5.875200E-05   5.875200E-05   5.875200E-05   5.875200E-05   5.875200E-05   5.875200E-05   5.875200E-05   5.875200E-05   5.875200E-05   5.875200E-05   5.875200E-05   5.875200E-05   5.875200E-05   5.875200E-05   5.875200E-05   5.875200E-05   5.875200E-05   5.875200E-05   5.875200E-05   5.875200E-05   5.875200E-05   5.875200E-05   5.875200E-05   5.875200E-05   5.875200E-05   5.875200E-05   5.875200E-05   5.875200E-05   5.875200E-05   5.875200E-05   5.875200E-05   5.875200E-05   5.875200E-05   5.875200E-05   5.875200E-05   5.875200E-05   5.875200E-05   5.875200E-05   5.875200E-05   5.875200E-05   5.875200E-05   5.875200E-05   5.875200E-05   5.875200E-05   5.875200E-05   5.875200E-05   5.875200E-05   5.875200E-05   5.875200E-05   5.875200E-05   5.875200E-05   5.875200E-05   5.875200E-05   5.875200E-05   5.875200E-05   5.875200E-05   5.875200E-05   5.875200E-05   5.875200E-05   5.875200E-05   5.875200E-05   5.875200E-05   5.875200E-05   5.875200E-05   5.875200E-05   5.875200E-05   5.875200E-05   5.875200E-05   5.875200E-05   5.875200E-05   5.875200E-05   5.875200E-05   5.875200E-05   5.875200E-05   5.875200E-05   5.875200E-05   5.875200E-05   5.875200E-05   5.875200E-05   5.875200E-05   5.875200E-05   5.875200E-05   5.875200E-05   5.875200E-05   5.875200E-05   5.875200E-05   5.875200E-05   5.875200E-05   5.875200E-05   5.875200E-05   5.875200E-05   5.875200E-05   5.875200E-05   5.875200E-05   5.875200E-05   5.875200E-05   5.875200E-05   5.875200E-05   5.875200E-05   5.875200E-05   5.875200E-05   5.875200E-05   5.875200E-05   5.875200E-05   5.875200E-05   5.875200E-05   5.875200E-05   5.875200E-05   5.875200E-05   5.875200E-05   5.875200E-05   5.875200E-05   5.875200E-05   5.875200E-05   5.875200E-05   5.875200E-05   5.875200E-05   5.875200E-05   5.875200E-05   5.875200E-05   5.875200E-05   5.875200E-05   5.875200E-05   5.875200E-05   5.875200E-05   5.875200E-05   5.875200E-05   5.875200E-05   5.875200E-05   5.875200E-05   5.875200E-05   5.875200E-05   5.875200E-05   5.875200E-05   5.875200E-05   5.875200E-05   5.875200E-05   5.875200E-05   5.875200E-05   5.875200E-05   5.875200E-05   5.875200E-05   5.875200E-05   5.875200E-05   5.875200E-05   5.875200E-05   5.875200E-05   5.875200E-05   5.875200E-05   5.875200E-05   5.875200E-05   5.875200E-05   5.875200E-05   5.875200E-05   5.875200E-05   5.875200E-05   5.875200E-05   5.875200E-05   5.875200E-05   5.875200E-05   5.875200E-05   5.875200E-05   5.875200E-05   5.875200E-05   5.875200E-05   5.875200E-05   5.875200E-05   5.875200E-05   5.875200E-05   5.875200E-05   5.875200E-05   5.875200E-05   5.875200E-05   5.875200E-05   5.875200E-05   5.875200E-05   5.875200E-05   5.875200E-05   5.875200E-05   5.875200E-05   5.875200E-05   5.875200E-05   5.875200E-05   5.875200E-05   5.875200E-05   5.875200E-05   5.875200E-05   5.875200E-05   5.875200E-05   5.875200E-05   5.875200E-05   5.875200E-05   5.875200E-05   5.875200E-05   5.875200E-05   5.875200E-05   5.875200E-05   5.875200E-05   5.875200E-05   5.875200E-05   5.875200E-05   5.875200E-05   5.875200E-05   5.875200E-05   5.875200E-05   5.875200E-05   5.875200E-05   5.875200E-05   5.875200E-05   5.875200E-05   5.875200E-05   5.875200E-05   5.875200E-05   5.875200E-05   5.875200E-05   5.875200E-05   5.875200E-05   5.875200E-05   5.875200E-05   5.875200E-05   5.875200E-05   5.875200E-05   5.875200E-05   5.875200E-05   5.875200E-05   5.875200E-05   5.875200E-05   5.875200E-05   5.875200E-05   5.875200E-05   5.875200E-05   5.875200E-05   5.875200E-05   5.875200E-05   5.875200E-05   5.875200E-05   5.875200E-05   5.875200E-05   5.875200E-05   5.875200E-05   5.875200E-05   5.875200E-05   5.875200E-05   5.875200E-05   5.875200E-05   5.875200E-05   5.875200E-05   5.875200E-05   5.875200E-05   5.875200E-05   5.875200E-05   5.875200E-05   5.875200E-05   5.875200E-05   5.875200E-05   5.875200E-05   5.875200E-05   5.875200E-05   5.875200E-05   5.875200E-05   5.875200E-05   5.875200E-05   5.875200E-05   5.875200E-05   5.875200E-05   5.875200E-05   5.875200E-05   5.875200E-05   5.875200E-05   5.875200E-05   5.875200E-05   5.875200E-05   5.875200E-05   5.875200E-05   5.875200E-05   5.875200E-05   5.875200E-05   5.875200E-05   5.875200E-05   5.875200E-05   5.875200E-05   5.875200E-05   5.875200E-05   5.875200E-05   5.875200E-05   5.875200E-05   5.875200E-05   5.875200E-05   5.875200E-05   5.875200E-05   5.875200E-05   5.875200E-05   5.875200E-05   5.875200E-05   5.875200E-05   5.875200E-05   5.875200E-05   5.875200E-05   5.875200E-05   5.875200E-05   5.875200E-05   5.875200E-05   5.875200E-05   5.875200E-05   5.875200E-05   5.875200E-05   5.875200E-05   5.875200E-05   5.875200E-05   5.875200E-05   5.875200E-05   5.875200E-05   5.875200E-05   5.875200E-05   5.875200E-05   5.875200E-05   5.875200E-05   5.875200E-05   5.875200E-05   5.875200E-05   5.875200E-05   5.875200E-05   5.875200E-05   5.875200E-05   5.875200E-05   5.875200E-05   5.875200E-05   5.875200E-05   5.875200E-05   5.875200E-05   5.875200E-05   5.875200E-05   5.875200E-05   5.875200E-05   5.875200E-05   5.875200E-05   5.875200E-05   5.875200E-05   5.875200E-05   5.875200E-05   5.875200E-05   5.875200E-05   5.875200E-05   5.875200E-05   5.875200E-05   5.875200E-05   5.875200E-05   5.875200E-05   5.875200E-05   5.875200E-05   5.875200E-05   5.875200E-05   5.875200E-05   5.875200E-05   5.875200E-05   5.875200E-05   5.875200E-05   5.875200E-05   5.875200E-05   5.875200E-05   5.875200E-05   5.875200E-05   5.875200E-05   5.875200E-05   5.875200E-05   5.875200E-05   5.875200E-05   5.875200E-05   5.875200E-05   5.875200E-05   5.875200E-05   5.875200E-05   5.875200E-05   5.875200E-05   5.875200E-05   5.875200E-05   5.875200E-05   5.875200E-05   5.875200E-05   5.875200E-05   5.875200E-05   5.875200E-05   5.875200E-05   5.875200E-05   5.875200E-05   5.875200E-05   5.875200E-05   5.875200E-05   5.875200E-05   5.875200E-05   5.875200E-05   5.875200E-05   5.875200E-05   5.875200E-05   5.875200E-05   5.875200E-05   5.875200E-05   5.875200E-05   5.875200E-05   5.875200E-05   5.875200E-05   5.875200E-05   5.875200E-05   5.875200E-05   5.875200E-05   5.875200E-05   5.875200E-05   5.875200E-05   5.875200E-05   5.875200E-05   5.875200E-05   5.875200E-05   5.875200E-05   5.875200E-05   5.875200E-05   5.875200E-05   5.875200E-05   5.875200E-05   5.875200E-05   5.875200E-05   5.875200E-05   5.875200E-05   5.875200E-05   5.875200E-05   5.875200E-05   5.875200E-05   5.875200E-05   5.875200E-05   5.875200E-05   5.875200E-05   5.875200E-05   5.875200E-05   5.875200E-05   5.875200E-05   5.875200E-05   5.875200E-05   5.875200E-05   5.875200E-05   5.875200E-05   5.875200E-05   5.875200E-05   5.875200E-05   5.875200E-05   5.875200E-05   5.875200E-05   5.875200E-05   5.875200E-05   5.875200E-05   5.875200E-05   5.875200E-05   5.875200E-05   5.875200E-05   5.875200E-05   5.875200E-05   5.875200E-05   5.875200E-05   5.875200E-05   5.875200E-05   5.875200E-05   5.875200E-05   5.875200E-05   5.875200E-05   5.875200E-05   5.875200E-05   5.875200E-05   5.875200E-05   5.875200E-05   5.875200E-05   5.875200E-05   5.875200E-05   5.875200E-05   5.875200E-05   5.875200E-05   5.875200E-05   5.875200E-05   5.875200E-05   5.875200E-05   5.875200E-05   5.875200E-05   5.875200E-05   5.875200E-05   5.875200E-05   5.875200E-05   5.875200E-05   5.875200E-05   5.875200E-05   5.875200E-05   5.875200E-05   5.875200E-05   5.875200E-05   5.875200E-05   5.875200E-05   5.875200E-05   5.875200E-05   5.875200E-05   5.875200E-05   5.875200E-05   5.875200E-05   5.875200E-05   5.875200E-05   5.875200E-05   5.875200E-05   5.875200E-05   5.875200E-05   5.875200E-05   5.875200E-05   5.875200E-05   5.875200E-05   5.875200E-05   5.875200E-05   5.875200E-05   5.875200E-05   5.875200E-05   5.875200E-05   5.875200E-05   5.875200E-05   5.875200E-05   5.875200E-05   5.875200E-05   5.875200E-05   5.875200E-05   5.875200E-05   5.875200E-05   5.875200E-05   5.875200E-05   5.875200E-05   5.875200E-05   5.875200E-05   5.875200E-05   5.875200E-05   5.875200E-05   5.875200E-05   5.875200E-05   5.875200E-05   5.875200E-05   5.875200E-05   5.875200E-05   5.875200E-05   5.875200E-05   5.875200E-05   5.875200E-05   5.875200E-05   5.875200E-05   5.875200E-05   5.875200E-05   5.875200E-05   5.875200E-05   5.875200E-05   5.875200E-05   5.875200E-05   5.875200E-05   5.875200E-05   5.875200E-05   5.875200E-05   5.875200E-05   5.875200E-05   5.875200E-05   5.875200E-05   5.875200E-05   5.875200E-05   5.875200E-05   5.875200E-05   5.875200E-05   5.875200E-05   5.875200E-05   5.875200E-05   5.875200E-05   5.875200E-05   5.875200E-05   5.875200E-05   5.875200E-05   5.875200E-05   5.875200E-05   5.875200E-05   5.875200E-05   5.875200E-05   5.875200E-05   5.875200E-05   5.875200E-05   5.875200E-05   5.875200E-05   5.875200E-05   5.875200E-05   5.875200E-05   5.875200E-05   5.875200E-05   5.875200E-05   5.875200E-05   5.875200E-05   5.875200E-05   5.875200E-05   5.875200E-05   5.875200E-05   5.875200E-05   5.875200E-05   5.875200E-05   5.875200E-05   5.875200E-05   5.875200E-05   5.875200E-05   5.875200E-05   5.875200E-05   5.875200E-05   5.875200E-05   5.875200E-05   5.875200E-05   5.875200E-05   5.875200E-05   5.875200E-05   5.875200E-05   5.875200E-05   5.875200E-05   5.875200E-05   5.875200E-05   5.875200E-05   5.875200E-05   5.875200E-05   5.875200E-05   5.875200E-05   5.875200E-05   5.875200E-05   5.875200E-05   5.875200E-05   5.875200E-05   5.875200E-05   5.875200E-05   5.875200E-05   5.875200E-05   5.875200E-05   5.875200E-05   5.875200E-05   5.875200E-05   5.875200E-05   5.875200E-05   5.875200E-05   5.875200E-05   5.875200E-05   5.875200E-05   5.875200E-05   5.875200E-05   5.875200E-05   5.875200E-05   5.875200E-05   5.875200E-05   5.875200E-05   5.875200E-05   5.875200E-05   5.875200E-05   5.875200E-05   5.875200E-05   5.875200E-05   5.875200E-05   5.875200E-05   5.875200E-05   5.875200E-05   5.875200E-05   5.875200E-05   5.875200E-05   5.875200E-05   5.875200E-05   5.875200E-05   5.875200E-05   5.875200E-05   5.875200E-05   5.875200E-05   5.875200E-05   5.875200E-05   5.875200E-05   5.875200E-05   5.875200E-05   5.875200E-05   5.875200E-05   5.875200E-05   5.875200E-05   5.875200E-05   5.875200E-05   5.875200E-05   5.875200E-05   5.875200E-05   5.875200E-05   5.875200E-05   5.875200E-05   5.875200E-05   5.875200E-05   5.875200E-05   5.875200E-05   5.875200E-05   5.875200E-05   5.875200E-05   5.875200E-05   5.875200E-05   5.875200E-05   5.875200E-05   5.875200E-05   5.875200E-05   5.875200E-05   5.875200E-05   5.875200E-05   5.875200E-05   5.875200E-05   5.875200E-05   5.875200E-05   5.875200E-05   5.875200E-05   5.875200E-05   5.875200E-05   5.875200E-05   5.875200E-05   5.875200E-05   5.875200E-05   5.875200E-05   5.875200E-05   5.875200E-05   5.875200E-05   5.875200E-05   5.875200E-05   5.875200E-05   5.875200E-05   5.875200E-05   5.875200E-05   5.875200E-05   5.875200E-05   5.875200E-05   5.875200E-05   5.875200E-05   5.875200E-05   5.875200E-05   5.875200E-05   5.875200E-05   5.875200E-05   5.875200E-05   5.875200E-05   5.875200E-05   5.875200E-05   5.875200E-05   5.875200E-05   5.875200E-05   5.875200E-05   5.875200E-05   5.875200E-05   5.875200E-05   5.875200E-05   5.875200E-05   5.875200E-05   5.875200E-05   5.875200E-05   5.875200E-05   5.875200E-05   5.875200E-05   5.875200E-05   5.875200E-05   5.875200E-05   5.875200E-05   5.875200E-05   5.875200E-05   5.875200E-05   5.875200E-05   5.875200E-05   5.875200E-05   5.875200E-05   5.875200E-05   5.875200E-05   5.875200E-05   5.875200E-05   5.875200E-05   5.875200E-05   5.875200E-05   5.875200E-05   5.875200E-05   5.875200E-05   5.875200E-05   5.875200E-05   5.875200E-05   5.875200E-05   5.875200E-05   5.875200E-05   5.875200E-05   5.875200E-05   5.875200E-05   5.875200E-05   5.875200E-05   5.875200E-05   5.875200E-05   5.875200E-05   5.875200E-05   5.875200E-05   5.875200E-05   5.875200E-05   5.875200E-05   5.875200E-05   5.875200E-05   5.875200E-05   5.875200E-05   5.875200E-05   5.875200E-05   5.875200E-05   5.875200E-05   5.875200E-05   5.875200E-05   5.875200E-05   5.875200E-05   5.875200E-05   5.875200E-05   5.875200E-05   5.875200E-05   5.875200E-05   5.875200E-05   5.875200E-05   5.875200E-05   5.875200E-05   5.875200E-05   5.875200E-05   5.875200E-05   5.875200E-05   5.875200E-05   5.875200E-05   5.875200E-05   5.875200E-05   5.875200E-05   5.875200E-05   5.875200E-05   5.875200E-05   5.875200E-05   5.875200E-05   5.875200E-05   5.875200E-05   5.875200E-05   5.875200E-05   5.875200E-05   5.875200E-05   5.875200E-05   5.875200E-05   5.875200E-05   5.875200E-05   5.875200E-05   5.875200E-05   5.875200E-05   5.875200E-05   5.875200E-05   5.875200E-05   5.875200E-05   5.875200E-05   5.875200E-05   5.875200E-05   5.875200E-05   5.875200E-05   5.875200E-05   5.875200E-05   5.875200E-05   5.875200E-05   5.875200E-05   5.875200E-05   5.875200E-05   5.875200E-05   5.875200E-05   5.875200E-05   5.875200E-05   5.875200E-05   5.875200E-05   5.875200E-05   5.875200E-05   5.875200E-05   5.875200E-05   5.875200E-05   5.875200E-05   5.875200E-05   5.875200E-05   5.875200E-05   5.875200E-05   5.875200E-05   5.875200E-05   5.875200E-05   5.875200E-05   5.875200E-05   5.875200E-05   5.875200E-05   5.875200E-05   5.875200E-05   5.875200E-05   5.875200E-05   5.875200E-05   5.875200E-05   5.875200E-05   5.875200E-05   5.875200E-05   5.875200E-05   5.875200E-05   5.875200E-05   5.875200E-05   5.875200E-05   5.875200E-05   5.875200E-05   5.875200E-05   5.875200E-05   5.875200E-05   5.875200E-05   5.875200E-05   5.875200E-05   5.875200E-05   5.875200E-05   5.875200E-05   5.875200E-05   5.875200E-05   5.875200E-05   5.875200E-05   5.875200E-05   5.875200E-05   5.875200E-05   5.875200E-05   5.875200E-05   5.875200E-05   5.875200E-05   5.875200E-05   5.875200E-05   5.875200E-05   5.875200E-05   5.875200E-05   5.875200E-05   5.875200E-05   5.875200E-05   5.875200E-05   5.875200E-05   5.875200E-05   5.875200E-05   5.875200E-05   5.875200E-05   5.875200E-05   5.875200E-05   5.875200E-05   5.875200E-05   5.875200E-05   5.875200E-05   5.875200E-05   5.875200E-05   5.875200E-05   5.875200E-05   5.875200E-05   5.875200E-05   5.875200E-05   5.875200E-05   5.875200E-05   5.875200E-05   5.875200E-05   5.875200E-05   5.875200E-05   5.875200E-05   5.875200E-05   5.875200E-05   5.875200E-05   5.875200E-05   5.875200E-05   5.875200E-05   5.875200E-05   5.875200E-05   5.875200E-05   5.875200E-05   5.875200E-05   5.875200E-05   5.875200E-05   5.875200E-05   5.875200E-05   5.875200E-05   5.875200E-05   5.875200E-05   5.875200E-05   5.875200E-05   5.875200E-05   5.875200E-05   5.875200E-05   5.875200E-05   5.875200E-05   5.875200E-05   5.875200E-05   5.875200E-05   5.875200E-05   5.875200E-05   5.875200E-05   5.875200E-05   5.875200E-05   5.875200E-05   5.875200E-05   5.875200E-05   5.875200E-05   5.875200E-05   5.875200E-05   5.875200E-05   5.875200E-05   5.875200E-05   5.875200E-05   5.875200E-05   5.875200E-05   5.875200E-05   5.875200E-05   5.875200E-05   5.875200E-05   5.875200E-05   5.875200E-05   5.875200E-05   5.875200E-05   5.875200E-05   5.875200E-05   5.875200E-05   5.875200E-05   5.875200E-05   5.875200E-05   5.875200E-05   5.875200E-05   5.875200E-05   5.875200E-05   5.875200E-05   5.875200E-05   5.875200E-05   5.875200E-05   5.875200E-05   5.875200E-05   5.875200E-05   5.875200E-05   5.875200E-05   5.875200E-05   5.875200E-05   5.875200E-05   5.875200E-05   5.875200E-05   5.875200E-05   5.875200E-05   5.875200E-05   5.875200E-05   5.875200E-05   5.875200E-05   5.875200E-05   5.875200E-05   5.875200E-05   5.875200E-05   5.875200E-05   5.875200E-05   5.875200E-05   5.875200E-05   5.875200E-05   5.875200E-05   5.875200E-05   5.875200E-05   5.875200E-05   5.875200E-05   5.875200E-05   5.875200E-05   5.875200E-05   5.875200E-05   5.875200E-05   5.875200E-05   5.875200E-05   5.875200E-05   5.875200E-05   5.875200E-05   5.875200E-05   5.875200E-05   5.875200E-05   5.875200E-05   5.875200E-05   5.875200E-05   5.875200E-05   5.875200E-05   5.875200E-05   5.875200E-05   5.875200E-05   5.875200E-05   5.875200E-05   5.875200E-05   5.875200E-05   5.875200E-05   5.875200E-05   5.875200E-05   5.875200E-05   5.875200E-05   5.875200E-05   5.875200E-05   5.875200E-05   5.875200E-05   5.875200E-05   5.875200E-05   5.875200E-05   5.875200E-05   5.875200E-05   5.875200E-05   5.875200E-05   5.875200E-05   5.875200E-05   5.875200E-05   5.875200E-05   5.875200E-05   5.875200E-05   5.875200E-05   5.875200E-05   5.875200E-05   5.875200E-05   5.875200E-05   5.875200E-05   5.875200E-05   5.875200E-05   5.875200E-05   5.875200E-05   5.875200E-05   5.875200E-05   5.875200E-05   5.875200E-05   5.875200E-05   5.875200E-05   5.875200E-05   5.875200E-05   5.875200E-05   5.875200E-05   5.875200E-05   5.875200E-05   5.875200E-05   5.875200E-05   5.875200E-05   5.875200E-05   5.875200E-05   5.875200E-05   5.875200E-05   5.875200E-05   5.875200E-05   5.875200E-05   5.875200E-05   5.875200E-05   5.875200E-05   5.875200E-05   5.875200E-05   5.875200E-05   5.875200E-05   5.875200E-05   5.875200E-05   5.875200E-05   5.875200E-05   5.875200E-05   5.875200E-05   5.875200E-05   5.875200E-05   5.875200E-05   5.875200E-05   5.875200E-05   5.875200E-05   5.875200E-05   5.875200E-05   5.875200E-05   5.875200E-05   5.875200E-05   5.875200E-05   5.875200E-05   5.875200E-05   5.875200E-05   5.875200E-05   5.875200E-05   5.875200E-05   5.875200E-05   5.875200E-05   5.875200E-05   5.875200E-05   5.875200E-05   5.875200E-05   5.875200E-05   5.875200E-05   5.875200E-05   5.875200E-05   5.875200E-05   5.875200E-05   5.875200E-05   5.875200E-05   5.875200E-05   5.875200E-05   5.875200E-05   5.875200E-05   5.875200E-05   5.875200E-05   5.875200E-05   5.875200E-05   5.875200E-05   5.875200E-05   5.875200E-05   5.875200E-05   5.875200E-05   5.875200E-05   5.875200E-05   5.875200E-05   5.875200E-05   5.875200E-05   5.875200E-05   5.875200E-05   5.875200E-05   5.875200E-05   5.875200E-05   5.875200E-05   5.875200E-05   5.875200E-05   5.875200E-05   5.875200E-05   5.875200E-05   5.875200E-05   5.875200E-05   5.875200E-05   5.875200E-05   5.875200E-05   5.875200E-05   5.875200E-05   5.875200E-05   5.875200E-05   5.875200E-05   5.875200E-05   5.875200E-05   5.875200E-05   5.875200E-05   5.875200E-05   5.875200E-05   5.875200E-05   5.875200E-05   5.875200E-05   5.875200E-05   5.875200E-05   5.875200E-05   5.875200E-05   5.875200E-05   5.875200E-05   5.875200E-05   5.875200E-05   5.875200E-05   5.875200E-05   5.875200E-05   5.875200E-05   5.875200E-05   5.875200E-05   5.875200E-05   5.875200E-05   5.875200E-05   5.875200E-05   5.875200E-05   5.875200E-05   5.875200E-05   5.875200E-05   5.875200E-05   5.875200E-05   5.875200E-05   5.875200E-05   5.875200E-05   5.875200E-05   5.875200E-05   5.875200E-05   5.875200E-05   5.875200E-05   5.875200E-05   5.875200E-05   5.875200E-05   5.875200E-05   5.875200E-05   5.875200E-05   5.875200E-05   5.875200E-05   5.875200E-05   5.875200E-05   5.875200E-05   5.875200E-05   5.875200E-05   5.875200E-05   5.875200E-05   5.875200E-05   5.875200E-05   5.875200E-05   5.875200E-05   5.875200E-05   5.875200E-05   5.875200E-05   5.875200E-05   5.875200E-05   5.875200E-05   5.875200E-05   5.875200E-05   5.875200E-05   5.875200E-05   5.875200E-05   5.875200E-05   5.875200E-05   5.875200E-05   5.875200E-05   5.875200E-05   5.875200E-05   5.875200E-05   5.875200E-05   5.875200E-05   5.875200E-05   5.875200E-05   5.875200E-05   5.875200E-05   5.875200E-05   5.875200E-05   5.875200E-05   5.875200E-05   5.875200E-05   5.875200E-05   5.875200E-05   5.875200E-05   5.875200E-05   5.875200E-05   5.875200E-05   5.875200E-05   5.875200E-05   5.875200E-05   5.875200E-05   5.875200E-05   5.875200E-05   5.875200E-05   5.875200E-05   5.875200E-05   5.875200E-05   5.875200E-05   5.875200E-05   5.875200E-05   5.875200E-05   5.875200E-05   5.875200E-05   5.875200E-05   5.875200E-05   5.875200E-05   5.875200E-05   5.875200E-05   5.875200E-05   5.875200E-05   5.875200E-05   5.875200E-05   5.875200E-05   5.875200E-05   5.875200E-05   5.875200E-05   5.875200E-05   5.875200E-05   5.875200E-05   5.875200E-05   5.875200E-05   5.875200E-05   5.875200E-05   5.875200E-05   5.875200E-05   5.875200E-05   5.875200E-05   5.875200E-05   5.875200E-05   5.875200E-05   5.875200E-05   5.875200E-05   5.875200E-05   5.875200E-05   5.875200E-05   5.875200E-05   5.875200E-05   5.875200E-05   5.875200E-05   5.875200E-05   5.875200E-05   5.875200E-05   5.875200E-05   5.875200E-05   5.875200E-05   5.875200E-05   5.875200E-05   5.875200E-05   5.875200E-05   5.875200E-05   5.875200E-05   5.875200E-05   5.875200E-05   5.875200E-05   5.875200E-05   5.875200E-05   5.875200E-05   5.875200E-05   5.875200E-05   5.875200E-05   5.875200E-05   5.875200E-05   5.875200E-05   5.875200E-05   5.875200E-05   5.875200E-05   5.875200E-05   5.875200E-05   5.875200E-05   5.875200E-05   5.875200E-05   5.875200E-05   5.875200E-05   5.875200E-05   5.875200E-05   5.875200E-05   5.875200E-05   5.875200E-05   5.875200E-05   5.875200E-05   5.875200E-05   5.875200E-05   5.875200E-05   5.875200E-05   5.875200E-05   5.875200E-05
         1        -1 # Stress period 2
INTERNAL               1 (1499E15.6) -1 #rech_2                        