# LPF package for  MODFLOW-USG, generated by Flopy.
        50    -1E+30         0         0  
         1         0         0
         0         0         0
   1.000000E+00   1.000000E+00   1.000000E+00
         0         0         0
         0         0         0
INTERNAL               1 (1499E15.6) -1 #hk layer 1                    
   3.000000E+00   3.000000E+00   3.000000E+00   3.000000E+00   3.000000E+00   3.000000E+00   3.000000E+00   3.000000E+00   3.000000E+00   3.000000E+00   3.000000E+00   3.000000E+00   3.000000E+00   3.000000E+00   3.000000E+00   3.000000E+00   3.000000E+00   3.000000E+00   3.000000E+00   3.000000E+00   3.000000E+00   3.000000E+00   3.000000E+00   3.000000E+00   3.000000E+00   3.000000E+00   3.000000E+00   3.000000E+00   3.000000E+00   3.000000E+00   3.000000E+00   3.000000E+00   3.000000E+00   3.000000E+00   3.000000E+00   3.000000E+00   3.000000E+00   3.000000E+00   3.000000E+00   3.000000E+00   3.000000E+00   3.000000E+00   3.000000E+00   3.000000E+00   3.000000E+00   3.000000E+00   3.000000E+00   3.000000E+00   3.000000E+00   3.000000E+00   3.000000E+00   3.000000E+00   3.000000E+00   3.000000E+00   3.000000E+00   3.000000E+00   3.000000E+00   3.000000E+00   3.000000E+00   3.000000E+00   3.000000E+00   3.000000E+00   3.000000E+00   3.000000E+00   3.000000E+00   3.000000E+00   3.000000E+00   3.000000E+00   3.000000E+00   3.000000E+00   3.000000E+00   3.000000E+00   3.000000E+00   3.000000E+00   3.000000E+00   3.000000E+00   3.000000E+00   3.000000E+00   3.000000E+00   3.000000E+00   3.000000E+00   3.000000E+00   3.000000E+00   3.000000E+00   3.000000E+00   3.000000E+00   3.000000E+00   3.000000E+00   3.000000E+00   3.000000E+00   3.000000E+00   3.000000E+00   3.000000E+00   3.000000E+00   3.000000E+00   3.000000E+00   3.000000E+00   3.000000E+00   3.000000E+00   3.000000E+00   3.000000E+00   3.000000E+00   3.000000E+00   3.000000E+00   3.000000E+00   3.000000E+00   3.000000E+00   3.000000E+00   3.000000E+00   3.000000E+00   3.000000E+00   3.000000E+00   3.000000E+00   3.000000E+00   3.000000E+00   3.000000E+00   3.000000E+00   3.000000E+00   3.000000E+00   3.000000E+00   3.000000E+00   3.000000E+00   3.000000E+00   3.000000E+00   3.000000E+00   3.000000E+00   3.000000E+00   3.000000E+00   3.000000E+00   3.000000E+00   3.000000E+00   3.000000E+00   3.000000E+00   3.000000E+00   3.000000E+00   3.000000E+00   3.000000E+00   3.000000E+00   3.000000E+00   3.000000E+00   3.000000E+00   3.000000E+00   3.000000E+00   3.000000E+00   3.000000E+00   3.000000E+00   3.000000E+00   3.000000E+00   3.000000E+00   3.000000E+00   3.000000E+00   3.000000E+00   3.000000E+00   3.000000E+00   3.000000E+00   3.000000E+00   3.000000E+00   3.000000E+00   3.000000E+00   3.000000E+00   3.000000E+00   3.000000E+00   3.000000E+00   3.000000E+00   3.000000E+00   3.000000E+00   3.000000E+00   3.000000E+00   3.000000E+00   3.000000E+00   3.000000E+00   3.000000E+00   3.000000E+00   3.000000E+00   3.000000E+00   3.000000E+00   3.000000E+00   3.000000E+00   3.000000E+00   3.000000E+00   3.000000E+00   3.000000E+00   3.000000E+00   3.000000E+00   3.000000E+00   3.000000E+00   3.000000E+00   3.000000E+00   3.000000E+00   3.000000E+00   3.000000E+00   3.000000E+00   3.000000E+00   3.000000E+00   3.000000E+00   3.000000E+00   3.000000E+00   3.000000E+00   3.000000E+00   3.000000E+00   3.000000E+00   3.000000E+00   3.000000E+00   3.000000E+00   3.000000E+00   3.000000E+00   3.000000E+00   3.000000E+00   3.000000E+00   3.000000E+00   3.000000E+00   3.000000E+00   3.000000E+00   3.000000E+00   3.000000E+00   3.000000E+00   3.000000E+00   3.000000E+00   3.000000E+00   3.000000E+00   3.000000E+00   3.000000E+00   3.000000E+00   3.000000E+00   3.000000E+00   3.000000E+00   3.000000E+00   3.000000E+00   3.000000E+00   3.000000E+00   3.000000E+00   3.000000E+00   3.000000E+00   3.000000E+00   3.000000E+00   3.000000E+00   3.000000E+00   3.000000E+00   3.000000E+00   3.000000E+00   3.000000E+00   3.000000E+00   3.000000E+00   3.000000E+00   3.000000E+00   3.000000E+00   3.000000E+00   3.000000E+00   3.000000E+00   3.000000E+00   3.000000E+00   3.000000E+00   3.000000E+00   3.000000E+00   3.000000E+00   3.000000E+00   3.000000E+00   3.000000E+00   3.000000E+00   3.000000E+00   3.000000E+00   3.000000E+00   3.000000E+00   3.000000E+00   3.000000E+00   3.000000E+00   3.000000E+00   3.000000E+00   3.000000E+00   3.000000E+00   3.000000E+00   3.000000E+00   3.000000E+00   3.000000E+00   3.000000E+00   3.000000E+00   3.000000E+00   3.000000E+00   3.000000E+00   3.000000E+00   3.000000E+00   3.000000E+00   3.000000E+00   3.000000E+00   3.000000E+00   3.000000E+00   3.000000E+00   3.000000E+00   3.000000E+00   3.000000E+00   3.000000E+00   3.000000E+00   3.000000E+00   3.000000E+00   3.000000E+00   3.000000E+00   3.000000E+00   3.000000E+00   3.000000E+00   3.000000E+00   3.000000E+00   3.000000E+00   3.000000E+00   3.000000E+00   3.000000E+00   3.000000E+00   3.000000E+00   3.000000E+00   3.000000E+00   3.000000E+00   3.000000E+00   3.000000E+00   3.000000E+00   3.000000E+00   3.000000E+00   3.000000E+00   3.000000E+00   3.000000E+00   3.000000E+00   3.000000E+00   3.000000E+00   3.000000E+00   3.000000E+00   3.000000E+00   3.000000E+00   3.000000E+00   3.000000E+00   3.000000E+00   3.000000E+00   3.000000E+00   3.000000E+00   3.000000E+00   3.000000E+00   3.000000E+00   3.000000E+00   3.000000E+00   3.000000E+00   3.000000E+00   3.000000E+00   3.000000E+00   3.000000E+00   3.000000E+00   3.000000E+00   3.000000E+00   3.000000E+00   3.000000E+00   3.000000E+00   3.000000E+00   3.000000E+00   3.000000E+00   3.000000E+00   3.000000E+00   3.000000E+00   3.000000E+00   3.000000E+00   3.000000E+00   3.000000E+00   3.000000E+00   3.000000E+00   3.000000E+00   3.000000E+00   3.000000E+00   3.000000E+00   3.000000E+00   3.000000E+00   3.000000E+00   3.000000E+00   3.000000E+00   3.000000E+00   3.000000E+00   3.000000E+00   3.000000E+00   3.000000E+00   3.000000E+00   3.000000E+00   3.000000E+00   3.000000E+00   3.000000E+00   3.000000E+00   3.000000E+00   3.000000E+00   3.000000E+00   3.000000E+00   3.000000E+00   3.000000E+00   3.000000E+00   3.000000E+00   3.000000E+00   3.000000E+00   3.000000E+00   3.000000E+00   3.000000E+00   3.000000E+00   3.000000E+00   3.000000E+00   3.000000E+00   3.000000E+00   3.000000E+00   3.000000E+00   3.000000E+00   3.000000E+00   3.000000E+00   3.000000E+00   3.000000E+00   3.000000E+00   3.000000E+00   3.000000E+00   3.000000E+00   3.000000E+00   3.000000E+00   3.000000E+00   3.000000E+00   3.000000E+00   3.000000E+00   3.000000E+00   3.000000E+00   3.000000E+00   3.000000E+00   3.000000E+00   3.000000E+00   3.000000E+00   3.000000E+00   3.000000E+00   3.000000E+00   3.000000E+00   3.000000E+00   3.000000E+00   3.000000E+00   3.000000E+00   3.000000E+00   3.000000E+00   3.000000E+00   3.000000E+00   3.000000E+00   3.000000E+00   3.000000E+00   3.000000E+00   3.000000E+00   3.000000E+00   3.000000E+00   3.000000E+00   3.000000E+00   3.000000E+00   3.000000E+00   3.000000E+00   3.000000E+00   3.000000E+00   3.000000E+00   3.000000E+00   3.000000E+00   3.000000E+00   3.000000E+00   3.000000E+00   3.000000E+00   3.000000E+00   3.000000E+00   3.000000E+00   3.000000E+00   3.000000E+00   3.000000E+00   3.000000E+00   3.000000E+00   3.000000E+00   3.000000E+00   3.000000E+00   3.000000E+00   3.000000E+00   3.000000E+00   3.000000E+00   3.000000E+00   3.000000E+00   3.000000E+00   3.000000E+00   3.000000E+00   3.000000E+00   3.000000E+00   3.000000E+00   3.000000E+00   3.000000E+00   3.000000E+00   3.000000E+00   3.000000E+00   3.000000E+00   3.000000E+00   3.000000E+00   3.000000E+00   3.000000E+00   3.000000E+00   3.000000E+00   3.000000E+00   3.000000E+00   3.000000E+00   3.000000E+00   3.000000E+00   3.000000E+00   3.000000E+00   3.000000E+00   3.000000E+00   3.000000E+00   3.000000E+00   3.000000E+00   3.000000E+00   3.000000E+00   3.000000E+00   3.000000E+00   3.000000E+00   3.000000E+00   3.000000E+00   3.000000E+00   3.000000E+00   3.000000E+00   3.000000E+00   3.000000E+00   3.000000E+00   3.000000E+00   3.000000E+00   3.000000E+00   3.000000E+00   3.000000E+00   3.000000E+00   3.000000E+00   3.000000E+00   3.000000E+00   3.000000E+00   3.000000E+00   3.000000E+00   3.000000E+00   3.000000E+00   3.000000E+00   3.000000E+00   3.000000E+00   3.000000E+00   3.000000E+00   3.000000E+00   3.000000E+00   3.000000E+00   3.000000E+00   3.000000E+00   3.000000E+00   3.000000E+00   3.000000E+00   3.000000E+00   3.000000E+00   3.000000E+00   3.000000E+00   3.000000E+00   3.000000E+00   3.000000E+00   3.000000E+00   3.000000E+00   3.000000E+00   3.000000E+00   3.000000E+00   3.000000E+00   3.000000E+00   3.000000E+00   3.000000E+00   3.000000E+00   3.000000E+00   3.000000E+00   3.000000E+00   3.000000E+00   3.000000E+00   3.000000E+00   3.000000E+00   3.000000E+00   3.000000E+00   3.000000E+00   3.000000E+00   3.000000E+00   3.000000E+00   3.000000E+00   3.000000E+00   3.000000E+00   3.000000E+00   3.000000E+00   3.000000E+00   3.000000E+00   3.000000E+00   3.000000E+00   3.000000E+00   3.000000E+00   3.000000E+00   3.000000E+00   3.000000E+00   3.000000E+00   3.000000E+00   3.000000E+00   3.000000E+00   3.000000E+00   3.000000E+00   3.000000E+00   3.000000E+00   3.000000E+00   3.000000E+00   3.000000E+00   3.000000E+00   3.000000E+00   3.000000E+00   3.000000E+00   3.000000E+00   3.000000E+00   3.000000E+00   3.000000E+00   3.000000E+00   3.000000E+00   3.000000E+00   3.000000E+00   3.000000E+00   3.000000E+00   3.000000E+00   3.000000E+00   3.000000E+00   3.000000E+00   3.000000E+00   3.000000E+00   3.000000E+00   3.000000E+00   3.000000E+00   3.000000E+00   3.000000E+00   3.000000E+00   3.000000E+00   3.000000E+00   3.000000E+00   3.000000E+00   3.000000E+00   3.000000E+00   3.000000E+00   3.000000E+00   3.000000E+00   3.000000E+00   3.000000E+00   3.000000E+00   3.000000E+00   3.000000E+00   3.000000E+00   3.000000E+00   3.000000E+00   3.000000E+00   3.000000E+00   3.000000E+00   3.000000E+00   3.000000E+00   3.000000E+00   3.000000E+00   3.000000E+00   3.000000E+00   3.000000E+00   3.000000E+00   3.000000E+00   3.000000E+00   3.000000E+00   3.000000E+00   3.000000E+00   3.000000E+00   3.000000E+00   3.000000E+00   3.000000E+00   3.000000E+00   3.000000E+00   3.000000E+00   3.000000E+00   3.000000E+00   3.000000E+00   3.000000E+00   3.000000E+00   3.000000E+00   3.000000E+00   3.000000E+00   3.000000E+00   3.000000E+00   3.000000E+00   3.000000E+00   3.000000E+00   3.000000E+00   3.000000E+00   3.000000E+00   3.000000E+00   3.000000E+00   3.000000E+00   3.000000E+00   3.000000E+00   3.000000E+00   3.000000E+00   3.000000E+00   3.000000E+00   3.000000E+00   3.000000E+00   3.000000E+00   3.000000E+00   3.000000E+00   3.000000E+00   3.000000E+00   3.000000E+00   3.000000E+00   3.000000E+00   3.000000E+00   3.000000E+00   3.000000E+00   3.000000E+00   3.000000E+00   3.000000E+00   3.000000E+00   3.000000E+00   3.000000E+00   3.000000E+00   3.000000E+00   3.000000E+00   3.000000E+00   3.000000E+00   3.000000E+00   3.000000E+00   3.000000E+00   3.000000E+00   3.000000E+00   3.000000E+00   3.000000E+00   3.000000E+00   3.000000E+00   3.000000E+00   3.000000E+00   3.000000E+00   3.000000E+00   3.000000E+00   3.000000E+00   3.000000E+00   3.000000E+00   3.000000E+00   3.000000E+00   3.000000E+00   3.000000E+00   3.000000E+00   3.000000E+00   3.000000E+00   3.000000E+00   3.000000E+00   3.000000E+00   3.000000E+00   3.000000E+00   3.000000E+00   3.000000E+00   3.000000E+00   3.000000E+00   3.000000E+00   3.000000E+00   3.000000E+00   3.000000E+00   3.000000E+00   3.000000E+00   3.000000E+00   3.000000E+00   3.000000E+00   3.000000E+00   3.000000E+00   3.000000E+00   3.000000E+00   3.000000E+00   3.000000E+00   3.000000E+00   3.000000E+00   3.000000E+00   3.000000E+00   3.000000E+00   3.000000E+00   3.000000E+00   3.000000E+00   3.000000E+00   3.000000E+00   3.000000E+00   3.000000E+00   3.000000E+00   3.000000E+00   3.000000E+00   3.000000E+00   3.000000E+00   3.000000E+00   3.000000E+00   3.000000E+00   3.000000E+00   3.000000E+00   3.000000E+00   3.000000E+00   3.000000E+00   3.000000E+00   3.000000E+00   3.000000E+00   3.000000E+00   3.000000E+00   3.000000E+00   3.000000E+00   3.000000E+00   3.000000E+00   3.000000E+00   3.000000E+00   3.000000E+00   3.000000E+00   3.000000E+00   3.000000E+00   3.000000E+00   3.000000E+00   3.000000E+00   3.000000E+00   3.000000E+00   3.000000E+00   3.000000E+00   3.000000E+00   3.000000E+00   3.000000E+00   3.000000E+00   3.000000E+00   3.000000E+00   3.000000E+00   3.000000E+00   3.000000E+00   3.000000E+00   3.000000E+00   3.000000E+00   3.000000E+00   3.000000E+00   3.000000E+00   3.000000E+00   3.000000E+00   3.000000E+00   3.000000E+00   3.000000E+00   3.000000E+00   3.000000E+00   3.000000E+00   3.000000E+00   3.000000E+00   3.000000E+00   3.000000E+00   3.000000E+00   3.000000E+00   3.000000E+00   3.000000E+00   3.000000E+00   3.000000E+00   3.000000E+00   3.000000E+00   3.000000E+00   3.000000E+00   3.000000E+00   3.000000E+00   3.000000E+00   3.000000E+00   3.000000E+00   3.000000E+00   3.000000E+00   3.000000E+00   3.000000E+00   3.000000E+00   3.000000E+00   3.000000E+00   3.000000E+00   3.000000E+00   3.000000E+00   3.000000E+00   3.000000E+00   3.000000E+00   3.000000E+00   3.000000E+00   3.000000E+00   3.000000E+00   3.000000E+00   3.000000E+00   3.000000E+00   3.000000E+00   3.000000E+00   3.000000E+00   3.000000E+00   3.000000E+00   3.000000E+00   3.000000E+00   3.000000E+00   3.000000E+00   3.000000E+00   3.000000E+00   3.000000E+00   3.000000E+00   3.000000E+00   3.000000E+00   3.000000E+00   3.000000E+00   3.000000E+00   3.000000E+00   3.000000E+00   3.000000E+00   3.000000E+00   3.000000E+00   3.000000E+00   3.000000E+00   3.000000E+00   3.000000E+00   3.000000E+00   3.000000E+00   3.000000E+00   3.000000E+00   3.000000E+00   3.000000E+00   3.000000E+00   3.000000E+00   3.000000E+00   3.000000E+00   3.000000E+00   3.000000E+00   3.000000E+00   3.000000E+00   3.000000E+00   3.000000E+00   3.000000E+00   3.000000E+00   3.000000E+00   3.000000E+00   3.000000E+00   3.000000E+00   3.000000E+00   3.000000E+00   3.000000E+00   3.000000E+00   3.000000E+00   3.000000E+00   3.000000E+00   3.000000E+00   3.000000E+00   3.000000E+00   3.000000E+00   3.000000E+00   3.000000E+00   3.000000E+00   3.000000E+00   3.000000E+00   3.000000E+00   3.000000E+00   3.000000E+00   3.000000E+00   3.000000E+00   3.000000E+00   3.000000E+00   3.000000E+00   3.000000E+00   3.000000E+00   3.000000E+00   3.000000E+00   3.000000E+00   3.000000E+00   3.000000E+00   3.000000E+00   3.000000E+00   3.000000E+00   3.000000E+00   3.000000E+00   3.000000E+00   3.000000E+00   3.000000E+00   3.000000E+00   3.000000E+00   3.000000E+00   3.000000E+00   3.000000E+00   3.000000E+00   3.000000E+00   3.000000E+00   3.000000E+00   3.000000E+00   3.000000E+00   3.000000E+00   3.000000E+00   3.000000E+00   3.000000E+00   3.000000E+00   3.000000E+00   3.000000E+00   3.000000E+00   3.000000E+00   3.000000E+00   3.000000E+00   3.000000E+00   3.000000E+00   3.000000E+00   3.000000E+00   3.000000E+00   3.000000E+00   3.000000E+00   3.000000E+00   3.000000E+00   3.000000E+00   3.000000E+00   3.000000E+00   3.000000E+00   3.000000E+00   3.000000E+00   3.000000E+00   3.000000E+00   3.000000E+00   3.000000E+00   3.000000E+00   3.000000E+00   3.000000E+00   3.000000E+00   3.000000E+00   3.000000E+00   3.000000E+00   3.000000E+00   3.000000E+00   3.000000E+00   3.000000E+00   3.000000E+00   3.000000E+00   3.000000E+00   3.000000E+00   3.000000E+00   3.000000E+00   3.000000E+00   3.000000E+00   3.000000E+00   3.000000E+00   3.000000E+00   3.000000E+00   3.000000E+00   3.000000E+00   3.000000E+00   3.000000E+00   3.000000E+00   3.000000E+00   3.000000E+00   3.000000E+00   3.000000E+00   3.000000E+00   3.000000E+00   3.000000E+00   3.000000E+00   3.000000E+00   3.000000E+00   3.000000E+00   3.000000E+00   3.000000E+00   3.000000E+00   3.000000E+00   3.000000E+00   3.000000E+00   3.000000E+00   3.000000E+00   3.000000E+00   3.000000E+00   3.000000E+00   3.000000E+00   3.000000E+00   3.000000E+00   3.000000E+00   3.000000E+00   3.000000E+00   3.000000E+00   3.000000E+00   3.000000E+00   3.000000E+00   3.000000E+00   3.000000E+00   3.000000E+00   3.000000E+00   3.000000E+00   3.000000E+00   3.000000E+00   3.000000E+00   3.000000E+00   3.000000E+00   3.000000E+00   3.000000E+00   3.000000E+00   3.000000E+00   3.000000E+00   3.000000E+00   3.000000E+00   3.000000E+00   3.000000E+00   3.000000E+00   3.000000E+00   3.000000E+00   3.000000E+00   3.000000E+00   3.000000E+00   3.000000E+00   3.000000E+00   3.000000E+00   3.000000E+00   3.000000E+00   3.000000E+00   3.000000E+00   3.000000E+00   3.000000E+00   3.000000E+00   3.000000E+00   3.000000E+00   3.000000E+00   3.000000E+00   3.000000E+00   3.000000E+00   3.000000E+00   3.000000E+00   3.000000E+00   3.000000E+00   3.000000E+00   3.000000E+00   3.000000E+00   3.000000E+00   3.000000E+00   3.000000E+00   3.000000E+00   3.000000E+00   3.000000E+00   3.000000E+00   3.000000E+00   3.000000E+00   3.000000E+00   3.000000E+00   3.000000E+00   3.000000E+00   3.000000E+00   3.000000E+00   3.000000E+00   3.000000E+00   3.000000E+00   3.000000E+00   3.000000E+00   3.000000E+00   3.000000E+00   3.000000E+00   3.000000E+00   3.000000E+00   3.000000E+00   3.000000E+00   3.000000E+00   3.000000E+00   3.000000E+00   3.000000E+00   3.000000E+00   3.000000E+00   3.000000E+00   3.000000E+00   3.000000E+00   3.000000E+00   3.000000E+00   3.000000E+00   3.000000E+00   3.000000E+00   3.000000E+00   3.000000E+00   3.000000E+00   3.000000E+00   3.000000E+00   3.000000E+00   3.000000E+00   3.000000E+00   3.000000E+00   3.000000E+00   3.000000E+00   3.000000E+00   3.000000E+00   3.000000E+00   3.000000E+00   3.000000E+00   3.000000E+00   3.000000E+00   3.000000E+00   3.000000E+00   3.000000E+00   3.000000E+00   3.000000E+00   3.000000E+00   3.000000E+00   3.000000E+00   3.000000E+00   3.000000E+00   3.000000E+00   3.000000E+00   3.000000E+00   3.000000E+00   3.000000E+00   3.000000E+00   3.000000E+00   3.000000E+00   3.000000E+00   3.000000E+00   3.000000E+00   3.000000E+00   3.000000E+00   3.000000E+00   3.000000E+00   3.000000E+00   3.000000E+00   3.000000E+00   3.000000E+00   3.000000E+00   3.000000E+00   3.000000E+00   3.000000E+00   3.000000E+00   3.000000E+00   3.000000E+00   3.000000E+00   3.000000E+00   3.000000E+00   3.000000E+00   3.000000E+00   3.000000E+00   3.000000E+00   3.000000E+00   3.000000E+00   3.000000E+00   3.000000E+00   3.000000E+00   3.000000E+00   3.000000E+00   3.000000E+00   3.000000E+00   3.000000E+00   3.000000E+00   3.000000E+00   3.000000E+00   3.000000E+00   3.000000E+00   3.000000E+00   3.000000E+00   3.000000E+00   3.000000E+00   3.000000E+00   3.000000E+00   3.000000E+00   3.000000E+00   3.000000E+00   3.000000E+00   3.000000E+00   3.000000E+00   3.000000E+00   3.000000E+00   3.000000E+00   3.000000E+00   3.000000E+00   3.000000E+00   3.000000E+00   3.000000E+00   3.000000E+00   3.000000E+00   3.000000E+00   3.000000E+00   3.000000E+00   3.000000E+00   3.000000E+00   3.000000E+00   3.000000E+00   3.000000E+00   3.000000E+00   3.000000E+00   3.000000E+00   3.000000E+00   3.000000E+00   3.000000E+00   3.000000E+00   3.000000E+00   3.000000E+00   3.000000E+00   3.000000E+00   3.000000E+00   3.000000E+00   3.000000E+00   3.000000E+00   3.000000E+00   3.000000E+00   3.000000E+00   3.000000E+00   3.000000E+00   3.000000E+00   3.000000E+00   3.000000E+00   3.000000E+00   3.000000E+00   3.000000E+00   3.000000E+00   3.000000E+00   3.000000E+00   3.000000E+00   3.000000E+00   3.000000E+00   3.000000E+00   3.000000E+00   3.000000E+00   3.000000E+00   3.000000E+00   3.000000E+00   3.000000E+00   3.000000E+00   3.000000E+00   3.000000E+00   3.000000E+00   3.000000E+00   3.000000E+00   3.000000E+00   3.000000E+00   3.000000E+00   3.000000E+00   3.000000E+00   3.000000E+00   3.000000E+00   3.000000E+00   3.000000E+00   3.000000E+00   3.000000E+00   3.000000E+00   3.000000E+00   3.000000E+00   3.000000E+00   3.000000E+00   3.000000E+00   3.000000E+00   3.000000E+00   3.000000E+00   3.000000E+00   3.000000E+00   3.000000E+00   3.000000E+00   3.000000E+00   3.000000E+00   3.000000E+00   3.000000E+00   3.000000E+00   3.000000E+00   3.000000E+00   3.000000E+00   3.000000E+00   3.000000E+00   3.000000E+00   3.000000E+00   3.000000E+00   3.000000E+00   3.000000E+00   3.000000E+00   3.000000E+00   3.000000E+00   3.000000E+00   3.000000E+00   3.000000E+00   3.000000E+00   3.000000E+00   3.000000E+00   3.000000E+00   3.000000E+00   3.000000E+00   3.000000E+00   3.000000E+00   3.000000E+00   3.000000E+00   3.000000E+00   3.000000E+00   3.000000E+00   3.000000E+00   3.000000E+00   3.000000E+00   3.000000E+00   3.000000E+00   3.000000E+00   3.000000E+00   3.000000E+00   3.000000E+00   3.000000E+00   3.000000E+00   3.000000E+00   3.000000E+00   3.000000E+00   3.000000E+00   3.000000E+00   3.000000E+00   3.000000E+00   3.000000E+00   3.000000E+00   3.000000E+00   3.000000E+00   3.000000E+00   3.000000E+00   3.000000E+00   3.000000E+00   3.000000E+00   3.000000E+00   3.000000E+00   3.000000E+00   3.000000E+00   3.000000E+00   3.000000E+00   3.000000E+00   3.000000E+00   3.000000E+00   3.000000E+00   3.000000E+00   3.000000E+00   3.000000E+00   3.000000E+00   3.000000E+00   3.000000E+00   3.000000E+00   3.000000E+00   3.000000E+00   3.000000E+00   3.000000E+00   3.000000E+00   3.000000E+00   3.000000E+00   3.000000E+00   3.000000E+00   3.000000E+00   3.000000E+00   3.000000E+00   3.000000E+00   3.000000E+00   3.000000E+00   3.000000E+00   3.000000E+00   3.000000E+00   3.000000E+00   3.000000E+00   3.000000E+00   3.000000E+00   3.000000E+00   3.000000E+00   3.000000E+00   3.000000E+00   3.000000E+00   3.000000E+00   3.000000E+00   3.000000E+00   3.000000E+00   3.000000E+00   3.000000E+00   3.000000E+00   3.000000E+00   3.000000E+00   3.000000E+00   3.000000E+00   3.000000E+00   3.000000E+00   3.000000E+00   3.000000E+00   3.000000E+00   3.000000E+00   3.000000E+00   3.000000E+00   3.000000E+00   3.000000E+00   3.000000E+00   3.000000E+00   3.000000E+00   3.000000E+00   3.000000E+00   3.000000E+00   3.000000E+00   3.000000E+00   3.000000E+00   3.000000E+00   3.000000E+00   3.000000E+00   3.000000E+00   3.000000E+00   3.000000E+00   3.000000E+00   3.000000E+00   3.000000E+00   3.000000E+00   3.000000E+00   3.000000E+00   3.000000E+00   3.000000E+00   3.000000E+00   3.000000E+00   3.000000E+00   3.000000E+00   3.000000E+00   3.000000E+00   3.000000E+00   3.000000E+00   3.000000E+00   3.000000E+00   3.000000E+00   3.000000E+00   3.000000E+00   3.000000E+00   3.000000E+00   3.000000E+00   3.000000E+00   3.000000E+00   3.000000E+00   3.000000E+00   3.000000E+00   3.000000E+00   3.000000E+00   3.000000E+00   3.000000E+00   3.000000E+00   3.000000E+00   3.000000E+00   3.000000E+00
INTERNAL               1 (1499E15.6) -1 #vka1                          