# WEL package for  MODFLOW-USG, generated by Flopy.
         6        50 
         6         0 # stress period 1
      3324          -375.0
      3409          -375.0
      3737          -375.0
      3971          -375.0
      4092          -375.0
      4297          -375.0
         6         0 # stress period 2
      3324      -134.40321
      3409      -134.40321
      3737      -134.40321
      3971      -134.40321
      4092      -134.40321
      4297      -134.40321
         6         0 # stress period 3
      3324      -149.12407
      3409      -149.12407
      3737      -149.12407
      3971      -149.12407
      4092      -149.12407
      4297      -149.12407
         6         0 # stress period 4
      3324      -229.61124
      3409      -229.61124
      3737      -229.61124
      3971      -229.61124
      4092      -229.61124
      4297      -229.61124
         6         0 # stress period 5
      3324      -352.42996
      3409      -352.42996
      3737      -352.42996
      3971      -352.42996
      4092      -352.42996
      4297      -352.42996
         6         0 # stress period 6
      3324       -481.8202
      3409       -481.8202
      3737       -481.8202
      3971       -481.8202
      4092       -481.8202
      4297       -481.8202
         6         0 # stress period 7
      3324       -580.1086
      3409       -580.1086
      3737       -580.1086
      3971       -580.1086
      4092       -580.1086
      4297       -580.1086
         6         0 # stress period 8
      3324       -580.1086
      3409       -580.1086
      3737       -580.1086
      3971       -580.1086
      4092       -580.1086
      4297       -580.1086
         6         0 # stress period 9
      3324      -618.67725
      3409      -618.67725
      3737      -618.67725
      3971      -618.67725
      4092      -618.67725
      4297      -618.67725
         6         0 # stress period 10
      3324      -586.29663
      3409      -586.29663
      3737      -586.29663
      3971      -586.29663
      4092      -586.29663
      4297      -586.29663
         6         0 # stress period 11
      3324      -492.39456
      3409      -492.39456
      3737      -492.39456
      3971      -492.39456
      4092      -492.39456
      4297      -492.39456
         6         0 # stress period 12
      3324       -364.3118
      3409       -364.3118
      3737       -364.3118
      3971       -364.3118
      4092       -364.3118
      4297       -364.3118
         6         0 # stress period 13
      3324      -239.34102
      3409      -239.34102
      3737      -239.34102
      3971      -239.34102
      4092      -239.34102
      4297      -239.34102
         6         0 # stress period 14
      3324      -153.86887
      3409      -153.86887
      3737      -153.86887
      3971      -153.86887
      4092      -153.86887
      4297      -153.86887
         6         0 # stress period 15
      3324      -132.78152
      3409      -132.78152
      3737      -132.78152
      3971      -132.78152
      4092      -132.78152
      4297      -132.78152
         6         0 # stress period 16
      3324       -182.2188
      3409       -182.2188
      3737       -182.2188
      3971       -182.2188
      4092       -182.2188
      4297       -182.2188
         6         0 # stress period 17
      3324      -287.78647
      3409      -287.78647
      3737      -287.78647
      3971      -287.78647
      4092      -287.78647
      4297      -287.78647
         6         0 # stress period 18
      3324      -418.74738
      3409      -418.74738
      3737      -418.74738
      3971      -418.74738
      4092      -418.74738
      4297      -418.74738
         6         0 # stress period 19
      3324       -536.9707
      3409       -536.9707
      3737       -536.9707
      3971       -536.9707
      4092       -536.9707
      4297       -536.9707
         6         0 # stress period 20
      3324       -608.0344
      3409       -608.0344
      3737       -608.0344
      3971       -608.0344
      4092       -608.0344
      4297       -608.0344
         6         0 # stress period 21
      3324       -611.2476
      3409       -611.2476
      3737       -611.2476
      3971       -611.2476
      4092       -611.2476
      4297       -611.2476
         6         0 # stress period 22
      3324       -545.6746
      3409       -545.6746
      3737       -545.6746
      3971       -545.6746
      4092       -545.6746
      4297       -545.6746
         6         0 # stress period 23
      3324      -430.40787
      3409      -430.40787
      3737      -430.40787
      3971      -430.40787
      4092      -430.40787
      4297      -430.40787
         6         0 # stress period 24
      3324      -299.00842
      3409      -299.00842
      3737      -299.00842
      3971      -299.00842
      4092      -299.00842
      4297      -299.00842
         6         0 # stress period 25
      3324      -189.73482
      3409      -189.73482
      3737      -189.73482
      3971      -189.73482
      4092      -189.73482
      4297      -189.73482
