# DISU package for  MODFLOW-USG, generated by Flopy.
4497 3 29255 0 25 4 1 0 
  0  0  0
INTERNAL               1     (FREE) -1 #nodelay                       
      1499      1499      1499
INTERNAL               1     (FREE) -1 #top                           
   4.140240E+01   4.133081E+01   4.117999E+01   4.095432E+01   4.070931E+01   4.043085E+01   4.009084E+01   3.979636E+01   3.944411E+01   3.908687E+01   3.874368E+01   3.840399E+01   3.805364E+01   3.767211E+01   3.727559E+01   3.692919E+01   3.683263E+01   3.687044E+01   3.683263E+01   3.687044E+01   3.692733E+01   3.683159E+01   3.686935E+01   3.682951E+01   3.686719E+01   3.692716E+01   3.698357E+01   3.692485E+01   3.698124E+01   3.703937E+01   3.708693E+01   3.711279E+01   4.141753E+01   4.133787E+01   4.118803E+01   4.095626E+01   4.071925E+01   4.043606E+01   4.009564E+01   3.978070E+01   3.943545E+01   3.906076E+01   3.871861E+01   3.838353E+01   3.803437E+01   3.765467E+01   3.727021E+01   3.692361E+01   3.682743E+01   3.686502E+01   3.682536E+01   3.686285E+01   3.691840E+01   3.682266E+01   3.686001E+01   3.681934E+01   3.685649E+01   3.692023E+01   3.697659E+01   3.691413E+01   3.697013E+01   3.703091E+01   3.707886E+01   3.710387E+01   4.144245E+01   4.136702E+01   4.120671E+01   4.097007E+01   4.073389E+01   4.044087E+01   4.008412E+01   3.976557E+01   3.939819E+01   3.903209E+01   3.867385E+01   3.834215E+01   3.799277E+01   3.762735E+01   3.725536E+01   3.691170E+01   3.681601E+01   3.685299E+01   3.681269E+01   3.684947E+01   3.690306E+01   3.680896E+01   3.684555E+01   3.680482E+01   3.684121E+01   3.690655E+01   3.696189E+01   3.689811E+01   3.695253E+01   3.701274E+01   3.706073E+01   3.708591E+01   4.148380E+01   4.140802E+01   4.124792E+01   4.100307E+01   4.074854E+01   4.045048E+01   4.007338E+01   3.972918E+01   3.936676E+01   3.895456E+01   3.860112E+01   3.827567E+01   3.793710E+01   3.758903E+01   3.721910E+01   3.689247E+01   3.680069E+01   3.683687E+01   3.679655E+01   3.683253E+01   3.688016E+01   3.679136E+01   3.682679E+01   3.678513E+01   3.681965E+01   3.688883E+01   3.694205E+01   3.687568E+01   3.692744E+01   3.698705E+01   3.703389E+01   3.705762E+01   4.154239E+01   4.145901E+01   4.129391E+01   4.105542E+01   4.078231E+01   4.044468E+01   4.006211E+01   3.971255E+01   3.927607E+01   3.887059E+01   3.852362E+01   3.820268E+01   3.787408E+01   3.753572E+01   3.717611E+01   3.686611E+01   3.677889E+01   3.681250E+01   3.677266E+01   3.680536E+01   3.684883E+01   3.676472E+01   3.679672E+01   3.675508E+01   3.678658E+01   3.685867E+01   3.690871E+01   3.683928E+01   3.688751E+01   3.695008E+01   3.699477E+01   3.701869E+01   4.160534E+01   4.153455E+01   4.136453E+01   4.111573E+01   4.082088E+01   4.046301E+01   4.005827E+01   3.961914E+01   3.920841E+01   3.877740E+01   3.840944E+01   3.810872E+01   3.779416E+01   3.746841E+01   3.712472E+01   3.682832E+01   3.674544E+01   3.677645E+01   3.673580E+01   3.676631E+01   3.680478E+01   3.672476E+01   3.675464E+01   3.671232E+01   3.674145E+01   3.681752E+01   3.686386E+01   3.679230E+01   3.683688E+01   3.689748E+01   3.694604E+01   3.697164E+01   4.168361E+01   4.161142E+01   4.146446E+01   4.120088E+01   4.087869E+01   4.045464E+01   4.002824E+01   3.950999E+01   3.906732E+01   3.862727E+01   3.828530E+01   3.799799E+01   3.769825E+01   3.738658E+01   3.705692E+01   3.677821E+01   3.669988E+01   3.672826E+01   3.668744E+01   3.671506E+01   3.674807E+01   3.667305E+01   3.669941E+01   3.665670E+01   3.668129E+01   3.676365E+01   3.680657E+01   3.672856E+01   3.676960E+01   3.683593E+01   3.688470E+01   3.691358E+01   4.180635E+01   4.173301E+01   4.160455E+01   4.136411E+01   4.093629E+01   4.046154E+01   3.995647E+01   3.933681E+01   3.885104E+01   3.844459E+01   3.813887E+01   3.787000E+01   3.758790E+01   3.728421E+01   3.697276E+01   3.671435E+01   3.664035E+01   3.666317E+01   3.662400E+01   3.664506E+01   3.667586E+01   3.660449E+01   3.662280E+01   3.658183E+01   3.659641E+01   3.668703E+01   3.672597E+01   3.663427E+01   3.667089E+01   3.675731E+01   3.681558E+01   3.685176E+01   4.192367E+01   4.187130E+01   4.179509E+01   4.172395E+01  -1.049990E+03  -1.049990E+03  -1.049990E+03   3.891967E+01   3.851255E+01   3.822691E+01   3.797980E+01   3.772636E+01   3.745673E+01   3.717269E+01   3.687622E+01   3.663259E+01   3.655916E+01   3.657001E+01   3.653649E+01   3.654361E+01   3.658572E+01   3.650975E+01   3.650896E+01   3.647895E+01   3.646605E+01   3.657028E+01   3.660437E+01   3.647723E+01   3.650963E+01   3.665379E+01   3.674355E+01   3.678944E+01   4.203880E+01   4.199784E+01   4.196479E+01   4.192723E+01  -1.049990E+03  -1.049990E+03  -1.049990E+03  -1.049990E+03   3.816611E+01   3.800510E+01   3.780128E+01   3.757563E+01   3.731744E+01   3.703664E+01   3.676944E+01   3.653524E+01   3.644815E+01   3.642315E+01   3.641735E+01   3.638024E+01   3.650444E+01   3.640540E+01   3.636873E+01   3.641228E+01   3.638861E+01   3.639814E+01   3.637313E+01   3.634313E+01   3.633132E+01   3.631428E+01   3.629928E+01   3.627921E+01   3.638903E+01   3.644582E+01   3.632215E+01   3.635493E+01   3.628703E+01   3.632273E+01   3.639020E+01   3.633207E+01   3.629391E+01   3.627396E+01   3.631522E+01   3.629852E+01   3.636494E+01   3.634127E+01   3.628188E+01   3.631770E+01   3.630671E+01   3.633981E+01   3.638044E+01   3.635847E+01   3.641654E+01   3.651197E+01   3.660620E+01   3.649373E+01   3.658910E+01   3.668683E+01   3.674303E+01   4.211337E+01   4.209034E+01   4.206820E+01   4.205547E+01  -1.049990E+03  -1.049990E+03  -1.049990E+03  -1.049990E+03   3.791784E+01   3.780631E+01   3.764214E+01   3.743312E+01   3.716574E+01   3.698252E+01   3.685637E+01   3.687494E+01   3.675589E+01   3.667557E+01   3.649330E+01   3.641918E+01   3.640850E+01   3.642607E+01   3.642838E+01   3.648152E+01   3.643033E+01   3.644144E+01   3.643197E+01   3.644770E+01   3.641216E+01   3.644979E+01   3.646470E+01   3.650682E+01   3.658425E+01   3.667849E+01   3.672586E+01   4.214170E+01   4.213201E+01   4.212094E+01   4.211327E+01  -1.049990E+03  -1.049990E+03  -1.049990E+03  -1.049990E+03   3.773868E+01   3.765369E+01   3.750962E+01   3.731304E+01   3.712724E+01   3.695108E+01   3.708859E+01   3.691800E+01   3.682538E+01   3.672605E+01   3.676412E+01   3.669944E+01   3.664611E+01   3.666514E+01   3.660937E+01   3.666916E+01   3.665469E+01   3.661832E+01   3.661606E+01   3.658201E+01   3.658308E+01   3.659867E+01   3.674969E+01   3.665845E+01   3.660303E+01   3.667937E+01   3.662709E+01   3.678208E+01   3.668696E+01   3.657605E+01   3.657751E+01   3.660042E+01   3.659935E+01   3.658873E+01   3.663455E+01   3.662485E+01   3.661494E+01   3.656111E+01   3.659981E+01   3.655286E+01   3.646911E+01   3.643361E+01   3.645395E+01   3.643525E+01   3.646020E+01   3.646825E+01   3.643809E+01   3.646587E+01   3.644213E+01   3.647097E+01   3.649104E+01   3.653781E+01   3.651089E+01   3.656046E+01   3.661886E+01   3.668739E+01   3.672439E+01   4.213451E+01   4.212715E+01   4.211955E+01   4.211339E+01  -1.049990E+03  -1.049990E+03  -1.049990E+03  -1.049990E+03   3.761175E+01   3.754174E+01   3.741450E+01   3.724542E+01   3.702221E+01   3.679255E+01   3.669145E+01   3.684446E+01   3.674754E+01   3.662775E+01   3.647896E+01   3.644617E+01   3.647607E+01   3.645022E+01   3.648117E+01   3.648838E+01   3.645359E+01   3.648523E+01   3.645631E+01   3.648825E+01   3.652425E+01   3.657475E+01   3.653443E+01   3.658553E+01   3.664036E+01   3.669851E+01   3.672892E+01   4.208510E+01   4.207922E+01   4.206797E+01   4.206170E+01  -1.049990E+03  -1.049990E+03  -1.049990E+03  -1.049990E+03   3.752288E+01   3.745971E+01   3.734975E+01   3.720838E+01   3.702946E+01   3.683570E+01   3.666217E+01   3.649652E+01   3.645902E+01   3.649128E+01   3.646174E+01   3.649431E+01   3.650168E+01   3.646339E+01   3.649622E+01   3.646398E+01   3.649700E+01   3.654142E+01   3.659280E+01   3.654599E+01   3.659761E+01   3.665281E+01   3.670547E+01   3.673260E+01   4.198830E+01   4.198527E+01   4.197438E+01   4.196894E+01  -1.049990E+03  -1.049990E+03  -1.049990E+03  -1.049990E+03   3.745547E+01   3.739957E+01   3.730126E+01   3.717941E+01   3.702468E+01   3.685263E+01   3.667363E+01   3.650385E+01   3.646457E+01   3.649778E+01   3.646516E+01   3.649857E+01   3.650328E+01   3.646455E+01   3.649811E+01   3.646275E+01   3.649641E+01   3.654814E+01   3.659995E+01   3.654766E+01   3.659974E+01   3.665633E+01   3.670647E+01   3.673284E+01   4.185841E+01   4.185143E+01   4.184037E+01   4.183794E+01  -1.049990E+03  -1.049990E+03  -1.049990E+03  -1.049990E+03   3.740554E+01   3.735120E+01   3.726471E+01   3.715162E+01   3.700932E+01   3.684669E+01   3.666943E+01   3.649998E+01   3.646095E+01   3.649471E+01   3.645915E+01   3.649301E+01   3.649461E+01   3.645651E+01   3.649038E+01   3.645302E+01   3.648681E+01   3.654456E+01   3.659698E+01   3.653934E+01   3.659207E+01   3.665166E+01   3.670233E+01   3.672839E+01   4.167511E+01   4.165886E+01   4.166023E+01   4.166608E+01  -1.049990E+03  -1.049990E+03  -1.049990E+03  -1.049990E+03   3.736855E+01   3.731945E+01   3.723160E+01   3.712254E+01   3.698528E+01   3.682616E+01   3.665132E+01   3.648717E+01   3.644954E+01   3.648325E+01   3.644605E+01   3.647969E+01   3.647716E+01   3.644146E+01   3.647508E+01   3.643577E+01   3.646943E+01   3.653199E+01   3.658500E+01   3.652272E+01   3.657615E+01   3.664008E+01   3.669212E+01   3.671858E+01   4.147307E+01   4.145947E+01   4.144657E+01   4.145140E+01  -1.049990E+03  -1.049990E+03  -1.049990E+03  -1.049990E+03   3.734654E+01   3.729317E+01   3.720372E+01   3.709338E+01   3.695347E+01   3.679295E+01   3.661905E+01   3.646456E+01   3.643008E+01   3.646378E+01   3.642439E+01   3.645813E+01   3.644814E+01   3.641730E+01   3.645124E+01   3.640880E+01   3.644310E+01   3.651154E+01   3.656552E+01   3.649834E+01   3.655336E+01   3.662173E+01   3.667646E+01   3.670440E+01   4.123102E+01   4.121955E+01   4.120021E+01   4.120232E+01  -1.049990E+03  -1.049990E+03  -1.049990E+03  -1.049990E+03   3.733418E+01   3.727693E+01   3.718184E+01   3.706367E+01   3.691560E+01   3.674312E+01   3.656112E+01   3.642788E+01   3.640030E+01   3.643496E+01   3.639180E+01   3.642682E+01   3.640108E+01   3.638131E+01   3.641702E+01   3.636881E+01   3.640556E+01   3.648313E+01   3.653967E+01   3.646564E+01   3.652464E+01   3.659912E+01   3.665761E+01   3.668833E+01   4.095415E+01   4.093248E+01   4.090967E+01   4.090255E+01  -1.049990E+03  -1.049990E+03  -1.049990E+03  -1.049990E+03   3.734035E+01   3.727197E+01   3.716696E+01   3.703756E+01   3.687227E+01   3.667152E+01   3.653102E+01   3.644139E+01   3.645228E+01   3.636507E+01   3.636774E+01   3.635632E+01   3.639411E+01   3.634382E+01   3.638265E+01   3.632304E+01   3.633015E+01   3.637051E+01   3.631530E+01   3.635769E+01   3.644585E+01   3.650827E+01   3.642616E+01   3.649291E+01   3.657439E+01   3.663901E+01   3.667050E+01   4.064090E+01   4.062161E+01   4.059554E+01   4.055920E+01  -1.049990E+03  -1.049990E+03  -1.049990E+03  -1.049990E+03   3.737230E+01   3.728254E+01   3.716141E+01   3.701743E+01   3.683480E+01   3.666825E+01   3.652147E+01   3.665835E+01   3.651152E+01   3.641330E+01   3.633064E+01   3.636524E+01   3.630909E+01   3.626365E+01   3.628095E+01   3.623277E+01   3.628793E+01   3.628516E+01   3.624252E+01   3.624570E+01   3.621179E+01   3.621801E+01   3.623890E+01   3.636035E+01   3.627853E+01   3.623036E+01   3.630183E+01   3.625644E+01   3.639864E+01   3.631616E+01   3.620942E+01   3.621570E+01   3.623542E+01   3.623879E+01   3.623449E+01   3.627393E+01   3.627192E+01   3.626700E+01   3.630045E+01   3.634486E+01   3.628560E+01   3.633203E+01   3.625894E+01   3.628182E+01   3.632824E+01   3.628911E+01   3.633350E+01   3.640657E+01   3.647855E+01   3.639898E+01   3.647084E+01   3.655286E+01   3.662151E+01   3.665398E+01   4.033250E+01   4.028476E+01   4.021049E+01   4.015425E+01  -1.049990E+03  -1.049990E+03   3.774742E+01   3.764158E+01   3.744842E+01   3.730881E+01   3.715763E+01   3.700913E+01   3.683473E+01   3.663124E+01   3.642315E+01   3.633782E+01   3.648290E+01   3.639633E+01   3.629885E+01   3.629639E+01   3.633876E+01   3.630368E+01   3.634401E+01   3.632730E+01   3.630963E+01   3.634843E+01   3.631423E+01   3.635201E+01   3.640340E+01   3.646977E+01   3.640765E+01   3.646960E+01   3.654218E+01   3.660690E+01   3.663943E+01   3.998055E+01   3.992854E+01   3.983134E+01   3.966831E+01   3.932879E+01  -1.049990E+03   3.781273E+01   3.767459E+01   3.748008E+01   3.731354E+01   3.714478E+01   3.699532E+01   3.683361E+01   3.666259E+01   3.648672E+01   3.634429E+01   3.631884E+01   3.635558E+01   3.632344E+01   3.635916E+01   3.635472E+01   3.632614E+01   3.636116E+01   3.632693E+01   3.636158E+01   3.641172E+01   3.647033E+01   3.641362E+01   3.646977E+01   3.653585E+01   3.659534E+01   3.662613E+01   3.968135E+01   3.960519E+01   3.948785E+01   3.929340E+01   3.895347E+01   3.841831E+01   3.797786E+01   3.770161E+01   3.749183E+01   3.728688E+01   3.710855E+01   3.696172E+01   3.681629E+01   3.666399E+01   3.650589E+01   3.635859E+01   3.632772E+01   3.636200E+01   3.632852E+01   3.636242E+01   3.635840E+01   3.632786E+01   3.636156E+01   3.632576E+01   3.635944E+01   3.641333E+01   3.646793E+01   3.641104E+01   3.646462E+01   3.652736E+01   3.658406E+01   3.661283E+01   3.938324E+01   3.930471E+01   3.917320E+01   3.899276E+01   3.866334E+01   3.827208E+01   3.795735E+01   3.768290E+01   3.744674E+01   3.721626E+01   3.703158E+01   3.689914E+01   3.677538E+01   3.664332E+01   3.649712E+01   3.635416E+01   3.632365E+01   3.635732E+01   3.632155E+01   3.635520E+01   3.634766E+01   3.631850E+01   3.635211E+01   3.631451E+01   3.634805E+01   3.640675E+01   3.645985E+01   3.640045E+01   3.645321E+01   3.651514E+01   3.656965E+01   3.659711E+01   3.910700E+01   3.903420E+01   3.891130E+01   3.868110E+01   3.841767E+01   3.812916E+01   3.786061E+01   3.759433E+01   3.735204E+01   3.711337E+01   3.697489E+01   3.689683E+01   3.687563E+01   3.679914E+01   3.680276E+01   3.671619E+01   3.660676E+01   3.647456E+01   3.633889E+01   3.631052E+01   3.634399E+01   3.630652E+01   3.633994E+01   3.632871E+01   3.630192E+01   3.633530E+01   3.629670E+01   3.633007E+01   3.639214E+01   3.644470E+01   3.638275E+01   3.643517E+01   3.649766E+01   3.655125E+01   3.657830E+01   3.884366E+01   3.877853E+01   3.864642E+01   3.846204E+01   3.821249E+01   3.796350E+01   3.770759E+01   3.747356E+01   3.723775E+01   3.707405E+01   3.692188E+01   3.702777E+01   3.688012E+01   3.681968E+01   3.673668E+01   3.675980E+01   3.670679E+01   3.666148E+01   3.667304E+01   3.662518E+01   3.669931E+01   3.670757E+01   3.664301E+01   3.665139E+01   3.660686E+01   3.661808E+01   3.664944E+01   3.674038E+01   3.666370E+01   3.661608E+01   3.667876E+01   3.663417E+01   3.676143E+01   3.668134E+01   3.659796E+01   3.660933E+01   3.661631E+01   3.662517E+01   3.663242E+01   3.664637E+01   3.665654E+01   3.669941E+01   3.670187E+01   3.666727E+01   3.667228E+01   3.665120E+01   3.656363E+01   3.644421E+01   3.631710E+01   3.629149E+01   3.632485E+01   3.628628E+01   3.631963E+01   3.630463E+01   3.628060E+01   3.631388E+01   3.627446E+01   3.630760E+01   3.637227E+01   3.642462E+01   3.636055E+01   3.641270E+01   3.647625E+01   3.652697E+01   3.655432E+01   3.861777E+01   3.854830E+01   3.841541E+01   3.823876E+01   3.800440E+01   3.776583E+01   3.752155E+01   3.732144E+01   3.713591E+01   3.693858E+01   3.676204E+01   3.669518E+01   3.678658E+01   3.672381E+01   3.667929E+01   3.661332E+01   3.652329E+01   3.641037E+01   3.629129E+01   3.626831E+01   3.630132E+01   3.626217E+01   3.629504E+01   3.627682E+01   3.625550E+01   3.628821E+01   3.624831E+01   3.628083E+01   3.634758E+01   3.639940E+01   3.633344E+01   3.638486E+01   3.644932E+01   3.649981E+01   3.652631E+01   3.840943E+01   3.832788E+01   3.820380E+01   3.802347E+01   3.778801E+01   3.753653E+01   3.739526E+01   3.729354E+01   3.723943E+01   3.714365E+01   3.714219E+01   3.702019E+01   3.688031E+01   3.674509E+01   3.665382E+01   3.657045E+01   3.647782E+01   3.637086E+01   3.626123E+01   3.624112E+01   3.627345E+01   3.623392E+01   3.626607E+01   3.624403E+01   3.622609E+01   3.625800E+01   3.621761E+01   3.624923E+01   3.631812E+01   3.636907E+01   3.630127E+01   3.635174E+01   3.641716E+01   3.646765E+01   3.649462E+01   3.821676E+01   3.813514E+01   3.800028E+01   3.781533E+01   3.759379E+01   3.742899E+01   3.725614E+01   3.734661E+01   3.717705E+01   3.714742E+01   3.705133E+01   3.705969E+01   3.700322E+01   3.695094E+01   3.695512E+01   3.690003E+01   3.700554E+01   3.701005E+01   3.692857E+01   3.693611E+01   3.687801E+01   3.688906E+01   3.692652E+01   3.702119E+01   3.693613E+01   3.688122E+01   3.694626E+01   3.689451E+01   3.703193E+01   3.693794E+01   3.685940E+01   3.687067E+01   3.687274E+01   3.688093E+01   3.689040E+01   3.689453E+01   3.690168E+01   3.698560E+01   3.697885E+01   3.691600E+01   3.691307E+01   3.689189E+01   3.679188E+01   3.668562E+01   3.659262E+01   3.650566E+01   3.641782E+01   3.632046E+01   3.622522E+01   3.620912E+01   3.624047E+01   3.620064E+01   3.623171E+01   3.620425E+01   3.619128E+01   3.622213E+01   3.618103E+01   3.621175E+01   3.628291E+01   3.633287E+01   3.626312E+01   3.631268E+01   3.637978E+01   3.643051E+01   3.645730E+01   3.806652E+01   3.797926E+01   3.784015E+01   3.766755E+01   3.743599E+01   3.721455E+01   3.701055E+01   3.692427E+01   3.700839E+01   3.692317E+01   3.687086E+01   3.678169E+01   3.668354E+01   3.658536E+01   3.649651E+01   3.641456E+01   3.633738E+01   3.625739E+01   3.618110E+01   3.617079E+01   3.620136E+01   3.616054E+01   3.619097E+01   3.615538E+01   3.614932E+01   3.617960E+01   3.613713E+01   3.616724E+01   3.624191E+01   3.629118E+01   3.621872E+01   3.626786E+01   3.633675E+01   3.638847E+01   3.641528E+01   3.798029E+01   3.784370E+01   3.768832E+01   3.747738E+01   3.729498E+01   3.709581E+01   3.690232E+01   3.676325E+01   3.665710E+01   3.655111E+01   3.645151E+01   3.636269E+01   3.628809E+01   3.622977E+01   3.617637E+01   3.612708E+01   3.612493E+01   3.615489E+01   3.611274E+01   3.614254E+01   3.609568E+01   3.609939E+01   3.612910E+01   3.608488E+01   3.611458E+01   3.619354E+01   3.624271E+01   3.616641E+01   3.621584E+01   3.628850E+01   3.634165E+01   3.637105E+01  -1.049990E+03   3.770085E+01   3.752567E+01   3.731236E+01   3.712592E+01   3.693610E+01   3.675883E+01   3.661667E+01   3.649423E+01   3.638322E+01   3.627972E+01   3.618781E+01   3.611276E+01   3.608802E+01   3.607450E+01   3.606119E+01   3.607037E+01   3.610006E+01   3.605585E+01   3.608554E+01   3.602380E+01   3.604031E+01   3.607003E+01   3.602373E+01   3.605352E+01   3.613734E+01   3.618726E+01   3.610640E+01   3.615693E+01   3.623445E+01   3.629139E+01   3.632333E+01  -1.049990E+03  -1.049990E+03   3.734243E+01   3.711764E+01   3.691348E+01   3.672842E+01   3.655691E+01   3.642249E+01   3.629778E+01   3.617893E+01   3.607124E+01   3.596267E+01   3.594810E+01   3.593104E+01   3.579147E+01   3.578016E+01   3.590494E+01   3.595152E+01   3.598350E+01   3.600715E+01   3.603701E+01   3.599057E+01   3.602050E+01   3.594125E+01   3.597317E+01   3.600311E+01   3.595494E+01   3.598483E+01   3.607360E+01   3.612485E+01   3.603885E+01   3.609075E+01   3.617374E+01   3.623781E+01   3.627760E+01  -1.049990E+03  -1.049990E+03  -1.049990E+03   3.690564E+01   3.664886E+01   3.646882E+01   3.632129E+01   3.618779E+01   3.605655E+01   3.594630E+01   3.583733E+01   3.579636E+01   3.570897E+01   3.568436E+01   3.560170E+01   3.567292E+01   3.562351E+01   3.558226E+01   3.556243E+01   3.553410E+01   3.551347E+01   3.548272E+01   3.562020E+01   3.566299E+01   3.553302E+01   3.555922E+01   3.548204E+01   3.551143E+01   3.557701E+01   3.553072E+01   3.548822E+01   3.545782E+01   3.548668E+01   3.545939E+01   3.551829E+01   3.547306E+01   3.545755E+01   3.548741E+01   3.545955E+01   3.548716E+01   3.553040E+01   3.547468E+01   3.552315E+01   3.569377E+01   3.576974E+01   3.560624E+01   3.569081E+01   3.581629E+01   3.589705E+01   3.593671E+01   3.596656E+01   3.591849E+01   3.594828E+01   3.585302E+01   3.589980E+01   3.592940E+01   3.588063E+01   3.590991E+01   3.600214E+01   3.605465E+01   3.596381E+01   3.601640E+01   3.610570E+01   3.617663E+01   3.624277E+01  -1.049990E+03  -1.049990E+03  -1.049990E+03  -1.049990E+03   3.630376E+01   3.615710E+01   3.601361E+01   3.588013E+01   3.577333E+01   3.568301E+01   3.559993E+01   3.552245E+01   3.548638E+01   3.549480E+01   3.543608E+01   3.545130E+01   3.556995E+01   3.569355E+01   3.580919E+01   3.586148E+01   3.589042E+01   3.584232E+01   3.587093E+01   3.576118E+01   3.582169E+01   3.585007E+01   3.579958E+01   3.582786E+01   3.592383E+01   3.597600E+01   3.588147E+01   3.593409E+01   3.602633E+01   3.608914E+01  -1.049990E+03  -1.049990E+03  -1.049990E+03  -1.049990E+03  -1.049990E+03   3.607837E+01   3.580235E+01   3.564856E+01   3.552173E+01   3.544349E+01   3.538018E+01   3.532767E+01   3.529636E+01   3.530625E+01   3.539742E+01   3.554056E+01   3.570898E+01   3.577748E+01   3.580564E+01   3.575537E+01   3.578343E+01   3.564874E+01   3.573090E+01   3.575908E+01   3.570404E+01   3.573258E+01   3.583670E+01   3.589066E+01   3.578837E+01   3.584417E+01   3.594884E+01   3.603420E+01  -1.049990E+03  -1.049990E+03  -1.049990E+03  -1.049990E+03  -1.049990E+03  -1.049990E+03   3.525706E+01   3.518401E+01   3.511956E+01   3.507514E+01   3.503290E+01   3.500625E+01   3.500189E+01   3.503445E+01   3.513234E+01   3.531859E+01   3.558044E+01   3.567719E+01   3.570609E+01   3.565034E+01   3.567960E+01   3.550205E+01   3.562245E+01   3.565188E+01   3.559351E+01   3.562294E+01   3.573646E+01   3.579459E+01   3.568156E+01  -3.211749E+01   3.585939E+01  -1.049990E+03  -1.049990E+03  -1.049990E+03  -1.049990E+03  -1.049990E+03  -1.049990E+03  -1.049990E+03   3.472644E+01   3.471282E+01   3.468212E+01   3.465570E+01   3.463506E+01   3.462378E+01   3.463025E+01   3.466250E+01   3.474858E+01   3.495787E+01   3.541356E+01   3.556457E+01   3.559400E+01   3.553563E+01   3.556505E+01  -1.682126E+02  -1.001677E+02  -1.001420E+02  -3.715455E+02  -3.715271E+02   3.562366E+01  -1.678921E+02  -2.358015E+02  -4.393321E+02  -1.049990E+03  -1.049990E+03  -1.049990E+03  -1.049990E+03  -1.049990E+03  -1.049990E+03  -1.049990E+03  -1.049990E+03   3.413233E+01   3.413203E+01   3.413229E+01   3.413201E+01   3.413195E+01   3.413202E+01   3.413209E+01   3.413258E+01   3.413383E+01   3.413611E+01  -5.753765E+02  -6.429233E+02  -6.429123E+02  -9.143011E+02  -9.142974E+02  -7.789585E+02  -1.049990E+03  -1.049990E+03  -1.049990E+03  -1.049990E+03  -7.785938E+02  -8.464373E+02  -1.049990E+03  -1.049990E+03  -1.049990E+03  -1.049990E+03  -1.049990E+03
INTERNAL               1     (FREE) -1 #top                           