# SFR package for  MODFLOW-NWT, generated by Ross.
REACHINPUT
160 160 0 0 86400.0 0.0001 50 60 1
17 1 1 62.5 34.0 4.999999873689376e-05 1.0 0.10000000149011612
19 2 1 62.5 34.0 4.999999873689376e-05 1.0 0.10000000149011612
22 3 1 62.5 34.0 4.999999873689376e-05 1.0 0.10000000149011612
24 4 1 62.5 34.0 4.999999873689376e-05 1.0 0.10000000149011612
49 5 1 62.5 33.987178802490234 4.999999873689376e-05 1.0 0.10000000149011612
51 6 1 62.5 33.987178802490234 4.999999873689376e-05 1.0 0.10000000149011612
54 7 1 62.5 33.987178802490234 4.999999873689376e-05 1.0 0.10000000149011612
56 8 1 62.5 33.987178802490234 4.999999873689376e-05 1.0 0.10000000149011612
81 9 1 62.5 33.97435760498047 4.999999873689376e-05 1.0 0.10000000149011612
83 10 1 62.5 33.97435760498047 4.999999873689376e-05 1.0 0.10000000149011612
86 11 1 62.5 33.97435760498047 4.999999873689376e-05 1.0 0.10000000149011612
88 12 1 62.5 33.97435760498047 4.999999873689376e-05 1.0 0.10000000149011612
113 13 1 62.5 33.96154022216797 4.999999873689376e-05 1.0 0.10000000149011612
115 14 1 62.5 33.96154022216797 4.999999873689376e-05 1.0 0.10000000149011612
118 15 1 62.5 33.96154022216797 4.999999873689376e-05 1.0 0.10000000149011612
120 16 1 62.5 33.96154022216797 4.999999873689376e-05 1.0 0.10000000149011612
145 17 1 62.5 33.9487190246582 4.999999873689376e-05 1.0 0.10000000149011612
147 18 1 62.5 33.9487190246582 4.999999873689376e-05 1.0 0.10000000149011612
150 19 1 62.5 33.9487190246582 4.999999873689376e-05 1.0 0.10000000149011612
152 20 1 62.5 33.9487190246582 4.999999873689376e-05 1.0 0.10000000149011612
177 21 1 62.5 33.93589782714844 4.999999873689376e-05 1.0 0.10000000149011612
179 22 1 62.5 33.93589782714844 4.999999873689376e-05 1.0 0.10000000149011612
182 23 1 62.5 33.93589782714844 4.999999873689376e-05 1.0 0.10000000149011612
184 24 1 62.5 33.93589782714844 4.999999873689376e-05 1.0 0.10000000149011612
209 25 1 62.5 33.92307662963867 4.999999873689376e-05 1.0 0.10000000149011612
211 26 1 62.5 33.92307662963867 4.999999873689376e-05 1.0 0.10000000149011612
214 27 1 62.5 33.92307662963867 4.999999873689376e-05 1.0 0.10000000149011612
216 28 1 62.5 33.92307662963867 4.999999873689376e-05 1.0 0.10000000149011612
241 29 1 62.5 33.910255432128906 4.999999873689376e-05 1.0 0.10000000149011612
243 30 1 62.5 33.910255432128906 4.999999873689376e-05 1.0 0.10000000149011612
246 31 1 62.5 33.910255432128906 4.999999873689376e-05 1.0 0.10000000149011612
248 32 1 62.5 33.910255432128906 4.999999873689376e-05 1.0 0.10000000149011612
273 33 1 62.5 33.89743423461914 4.999999873689376e-05 1.0 0.10000000149011612
275 34 1 62.5 33.89743423461914 4.999999873689376e-05 1.0 0.10000000149011612
278 35 1 62.5 33.89743423461914 4.999999873689376e-05 1.0 0.10000000149011612
280 36 1 62.5 33.89743423461914 4.999999873689376e-05 1.0 0.10000000149011612
305 37 1 62.5 33.88461685180664 4.999999873689376e-05 1.0 0.10000000149011612
307 38 1 62.5 33.88461685180664 4.999999873689376e-05 1.0 0.10000000149011612
310 39 1 62.5 33.88461685180664 4.999999873689376e-05 1.0 0.10000000149011612
312 40 1 62.5 33.88461685180664 4.999999873689376e-05 1.0 0.10000000149011612
367 41 1 62.5 33.871795654296875 4.999999873689376e-05 1.0 0.10000000149011612
369 42 1 62.5 33.871795654296875 4.999999873689376e-05 1.0 0.10000000149011612
372 43 1 62.5 33.871795654296875 4.999999873689376e-05 1.0 0.10000000149011612
374 44 1 62.5 33.871795654296875 4.999999873689376e-05 1.0 0.10000000149011612
432 45 1 62.5 33.85897445678711 4.999999873689376e-05 1.0 0.10000000149011612
434 46 1 62.5 33.85897445678711 4.999999873689376e-05 1.0 0.10000000149011612
437 47 1 62.5 33.85897445678711 4.999999873689376e-05 1.0 0.10000000149011612
439 48 1 62.5 33.85897445678711 4.999999873689376e-05 1.0 0.10000000149011612
467 49 1 62.5 33.846153259277344 4.999999873689376e-05 1.0 0.10000000149011612
469 50 1 62.5 33.846153259277344 4.999999873689376e-05 1.0 0.10000000149011612
472 51 1 62.5 33.846153259277344 4.999999873689376e-05 1.0 0.10000000149011612
474 52 1 62.5 33.846153259277344 4.999999873689376e-05 1.0 0.10000000149011612
499 53 1 62.5 33.83333206176758 4.999999873689376e-05 1.0 0.10000000149011612
501 54 1 62.5 33.83333206176758 4.999999873689376e-05 1.0 0.10000000149011612
504 55 1 62.5 33.83333206176758 4.999999873689376e-05 1.0 0.10000000149011612
506 56 1 62.5 33.83333206176758 4.999999873689376e-05 1.0 0.10000000149011612
531 57 1 62.5 33.82051467895508 4.999999873689376e-05 1.0 0.10000000149011612
533 58 1 62.5 33.82051467895508 4.999999873689376e-05 1.0 0.10000000149011612
536 59 1 62.5 33.82051467895508 4.999999873689376e-05 1.0 0.10000000149011612
538 60 1 62.5 33.82051467895508 4.999999873689376e-05 1.0 0.10000000149011612
563 61 1 62.5 33.80769348144531 4.999999873689376e-05 1.0 0.10000000149011612
565 62 1 62.5 33.80769348144531 4.999999873689376e-05 1.0 0.10000000149011612
568 63 1 62.5 33.80769348144531 4.999999873689376e-05 1.0 0.10000000149011612
570 64 1 62.5 33.80769348144531 4.999999873689376e-05 1.0 0.10000000149011612
595 65 1 62.5 33.79487228393555 4.999999873689376e-05 1.0 0.10000000149011612
597 66 1 62.5 33.79487228393555 4.999999873689376e-05 1.0 0.10000000149011612
600 67 1 62.5 33.79487228393555 4.999999873689376e-05 1.0 0.10000000149011612
602 68 1 62.5 33.79487228393555 4.999999873689376e-05 1.0 0.10000000149011612
627 69 1 62.5 33.78205108642578 4.999999873689376e-05 1.0 0.10000000149011612
629 70 1 62.5 33.78205108642578 4.999999873689376e-05 1.0 0.10000000149011612
632 71 1 62.5 33.78205108642578 4.999999873689376e-05 1.0 0.10000000149011612
634 72 1 62.5 33.78205108642578 4.999999873689376e-05 1.0 0.10000000149011612
659 73 1 62.5 33.769229888916016 4.999999873689376e-05 1.0 0.10000000149011612
661 74 1 62.5 33.769229888916016 4.999999873689376e-05 1.0 0.10000000149011612
664 75 1 62.5 33.769229888916016 4.999999873689376e-05 1.0 0.10000000149011612
666 76 1 62.5 33.769229888916016 4.999999873689376e-05 1.0 0.10000000149011612
694 77 1 62.5 33.75640869140625 4.999999873689376e-05 1.0 0.10000000149011612
696 78 1 62.5 33.75640869140625 4.999999873689376e-05 1.0 0.10000000149011612
699 79 1 62.5 33.75640869140625 4.999999873689376e-05 1.0 0.10000000149011612
701 80 1 62.5 33.75640869140625 4.999999873689376e-05 1.0 0.10000000149011612
756 81 1 62.5 33.74359130859375 4.999999873689376e-05 1.0 0.10000000149011612
758 82 1 62.5 33.74359130859375 4.999999873689376e-05 1.0 0.10000000149011612
761 83 1 62.5 33.74359130859375 4.999999873689376e-05 1.0 0.10000000149011612
763 84 1 62.5 33.74359130859375 4.999999873689376e-05 1.0 0.10000000149011612
791 85 1 62.5 33.730770111083984 4.999999873689376e-05 1.0 0.10000000149011612
793 86 1 62.5 33.730770111083984 4.999999873689376e-05 1.0 0.10000000149011612
796 87 1 62.5 33.730770111083984 4.999999873689376e-05 1.0 0.10000000149011612
798 88 1 62.5 33.730770111083984 4.999999873689376e-05 1.0 0.10000000149011612
823 89 1 62.5 33.71794891357422 4.999999873689376e-05 1.0 0.10000000149011612
825 90 1 62.5 33.71794891357422 4.999999873689376e-05 1.0 0.10000000149011612
828 91 1 62.5 33.71794891357422 4.999999873689376e-05 1.0 0.10000000149011612
830 92 1 62.5 33.71794891357422 4.999999873689376e-05 1.0 0.10000000149011612
855 93 1 62.5 33.70512771606445 4.999999873689376e-05 1.0 0.10000000149011612
857 94 1 62.5 33.70512771606445 4.999999873689376e-05 1.0 0.10000000149011612
860 95 1 62.5 33.70512771606445 4.999999873689376e-05 1.0 0.10000000149011612
862 96 1 62.5 33.70512771606445 4.999999873689376e-05 1.0 0.10000000149011612
887 97 1 62.5 33.69230651855469 4.999999873689376e-05 1.0 0.10000000149011612
889 98 1 62.5 33.69230651855469 4.999999873689376e-05 1.0 0.10000000149011612
892 99 1 62.5 33.69230651855469 4.999999873689376e-05 1.0 0.10000000149011612
894 100 1 62.5 33.69230651855469 4.999999873689376e-05 1.0 0.10000000149011612
922 101 1 62.5 33.67948532104492 4.999999873689376e-05 1.0 0.10000000149011612
924 102 1 62.5 33.67948532104492 4.999999873689376e-05 1.0 0.10000000149011612
927 103 1 62.5 33.67948532104492 4.999999873689376e-05 1.0 0.10000000149011612
929 104 1 62.5 33.67948532104492 4.999999873689376e-05 1.0 0.10000000149011612
987 105 1 62.5 33.66666793823242 4.999999873689376e-05 1.0 0.10000000149011612
989 106 1 62.5 33.66666793823242 4.999999873689376e-05 1.0 0.10000000149011612
992 107 1 62.5 33.66666793823242 4.999999873689376e-05 1.0 0.10000000149011612
994 108 1 62.5 33.66666793823242 4.999999873689376e-05 1.0 0.10000000149011612
1022 109 1 62.5 33.653846740722656 4.999999873689376e-05 1.0 0.10000000149011612
1024 110 1 62.5 33.653846740722656 4.999999873689376e-05 1.0 0.10000000149011612
1027 111 1 62.5 33.653846740722656 4.999999873689376e-05 1.0 0.10000000149011612
1029 112 1 62.5 33.653846740722656 4.999999873689376e-05 1.0 0.10000000149011612
1057 113 1 62.5 33.64102554321289 4.999999873689376e-05 1.0 0.10000000149011612
1059 114 1 62.5 33.64102554321289 4.999999873689376e-05 1.0 0.10000000149011612
1062 115 1 62.5 33.64102554321289 4.999999873689376e-05 1.0 0.10000000149011612
1064 116 1 62.5 33.64102554321289 4.999999873689376e-05 1.0 0.10000000149011612
1122 117 1 62.5 33.628204345703125 4.999999873689376e-05 1.0 0.10000000149011612
1124 118 1 62.5 33.628204345703125 4.999999873689376e-05 1.0 0.10000000149011612
1127 119 1 62.5 33.628204345703125 4.999999873689376e-05 1.0 0.10000000149011612
1129 120 1 62.5 33.628204345703125 4.999999873689376e-05 1.0 0.10000000149011612
1157 121 1 62.5 33.61538314819336 4.999999873689376e-05 1.0 0.10000000149011612
1159 122 1 62.5 33.61538314819336 4.999999873689376e-05 1.0 0.10000000149011612
1162 123 1 62.5 33.61538314819336 4.999999873689376e-05 1.0 0.10000000149011612
1164 124 1 62.5 33.61538314819336 4.999999873689376e-05 1.0 0.10000000149011612
1189 125 1 62.5 33.60256576538086 4.999999873689376e-05 1.0 0.10000000149011612
1191 126 1 62.5 33.60256576538086 4.999999873689376e-05 1.0 0.10000000149011612
1194 127 1 62.5 33.60256576538086 4.999999873689376e-05 1.0 0.10000000149011612
1196 128 1 62.5 33.60256576538086 4.999999873689376e-05 1.0 0.10000000149011612
1221 129 1 62.5 33.589744567871094 4.999999873689376e-05 1.0 0.10000000149011612
1223 130 1 62.5 33.589744567871094 4.999999873689376e-05 1.0 0.10000000149011612
1226 131 1 62.5 33.589744567871094 4.999999873689376e-05 1.0 0.10000000149011612
1228 132 1 62.5 33.589744567871094 4.999999873689376e-05 1.0 0.10000000149011612
1256 133 1 62.5 33.57692337036133 4.999999873689376e-05 1.0 0.10000000149011612
1258 134 1 62.5 33.57692337036133 4.999999873689376e-05 1.0 0.10000000149011612
1261 135 1 62.5 33.57692337036133 4.999999873689376e-05 1.0 0.10000000149011612
1263 136 1 62.5 33.57692337036133 4.999999873689376e-05 1.0 0.10000000149011612
1321 137 1 62.5 33.56410217285156 4.999999873689376e-05 1.0 0.10000000149011612
1323 138 1 62.5 33.56410217285156 4.999999873689376e-05 1.0 0.10000000149011612
1326 139 1 62.5 33.56410217285156 4.999999873689376e-05 1.0 0.10000000149011612
1328 140 1 62.5 33.56410217285156 4.999999873689376e-05 1.0 0.10000000149011612
1356 141 1 62.5 33.5512809753418 4.999999873689376e-05 1.0 0.10000000149011612
1358 142 1 62.5 33.5512809753418 4.999999873689376e-05 1.0 0.10000000149011612
1361 143 1 62.5 33.5512809753418 4.999999873689376e-05 1.0 0.10000000149011612
1363 144 1 62.5 33.5512809753418 4.999999873689376e-05 1.0 0.10000000149011612
1388 145 1 62.5 33.53845977783203 4.999999873689376e-05 1.0 0.10000000149011612
1390 146 1 62.5 33.53845977783203 4.999999873689376e-05 1.0 0.10000000149011612
1393 147 1 62.5 33.53845977783203 4.999999873689376e-05 1.0 0.10000000149011612
1395 148 1 62.5 33.53845977783203 4.999999873689376e-05 1.0 0.10000000149011612
1420 149 1 62.5 33.52564239501953 4.999999873689376e-05 1.0 0.10000000149011612
1422 150 1 62.5 33.52564239501953 4.999999873689376e-05 1.0 0.10000000149011612
1425 151 1 62.5 33.52564239501953 4.999999873689376e-05 1.0 0.10000000149011612
1427 152 1 62.5 33.52564239501953 4.999999873689376e-05 1.0 0.10000000149011612
1452 153 1 62.5 33.512821197509766 4.999999873689376e-05 1.0 0.10000000149011612
1454 154 1 62.5 33.512821197509766 4.999999873689376e-05 1.0 0.10000000149011612
1457 155 1 62.5 33.512821197509766 4.999999873689376e-05 1.0 0.10000000149011612
1459 156 1 62.5 33.512821197509766 4.999999873689376e-05 1.0 0.10000000149011612
1484 157 1 62.5 33.5 4.999999873689376e-05 1.0 0.10000000149011612
1486 158 1 62.5 33.5 4.999999873689376e-05 1.0 0.10000000149011612
1489 159 1 62.5 33.5 4.999999873689376e-05 1.0 0.10000000149011612
1491 160 1 62.5 33.5 4.999999873689376e-05 1.0 0.10000000149011612
160 0 0 1
1 1 2 0 10000.0 0 0 0 0.1
5.0
5.0
2 1 3 0 0 0 0 0 0.1
5.0
5.0
3 1 4 0 0 0 0 0 0.1
5.0
5.0
4 1 5 0 0 0 0 0 0.1
5.0
5.0
5 1 6 0 0 0 0 0 0.1
5.0
5.0
6 1 7 0 0 0 0 0 0.1
5.0
5.0
7 1 8 0 0 0 0 0 0.1
5.0
5.0
8 1 9 0 0 0 0 0 0.1
5.0
5.0
9 1 10 0 0 0 0 0 0.1
5.0
5.0
10 1 11 0 0 0 0 0 0.1
5.0
5.0
11 1 12 0 0 0 0 0 0.1
5.0
5.0
12 1 13 0 0 0 0 0 0.1
5.0
5.0
13 1 14 0 0 0 0 0 0.1
5.0
5.0
14 1 15 0 0 0 0 0 0.1
5.0
5.0
15 1 16 0 0 0 0 0 0.1
5.0
5.0
16 1 17 0 0 0 0 0 0.1
5.0
5.0
17 1 18 0 0 0 0 0 0.1
5.0
5.0
18 1 19 0 0 0 0 0 0.1
5.0
5.0
19 1 20 0 0 0 0 0 0.1
5.0
5.0
20 1 21 0 0 0 0 0 0.1
5.0
5.0
21 1 22 0 0 0 0 0 0.1
5.0
5.0
22 1 23 0 0 0 0 0 0.1
5.0
5.0
23 1 24 0 0 0 0 0 0.1
5.0
5.0
24 1 25 0 0 0 0 0 0.1
5.0
5.0
25 1 26 0 0 0 0 0 0.1
5.0
5.0
26 1 27 0 0 0 0 0 0.1
5.0
5.0
27 1 28 0 0 0 0 0 0.1
5.0
5.0
28 1 29 0 0 0 0 0 0.1
5.0
5.0
29 1 30 0 0 0 0 0 0.1
5.0
5.0
30 1 31 0 0 0 0 0 0.1
5.0
5.0
31 1 32 0 0 0 0 0 0.1
5.0
5.0
32 1 33 0 0 0 0 0 0.1
5.0
5.0
33 1 34 0 0 0 0 0 0.1
5.0
5.0
34 1 35 0 0 0 0 0 0.1
5.0
5.0
35 1 36 0 0 0 0 0 0.1
5.0
5.0
36 1 37 0 0 0 0 0 0.1
5.0
5.0
37 1 38 0 0 0 0 0 0.1
5.0
5.0
38 1 39 0 0 0 0 0 0.1
5.0
5.0
39 1 40 0 0 0 0 0 0.1
5.0
5.0
40 1 41 0 0 0 0 0 0.1
5.0
5.0
41 1 42 0 0 0 0 0 0.1
5.0
5.0
42 1 43 0 0 0 0 0 0.1
5.0
5.0
43 1 44 0 0 0 0 0 0.1
5.0
5.0
44 1 45 0 0 0 0 0 0.1
5.0
5.0
45 1 46 0 0 0 0 0 0.1
5.0
5.0
46 1 47 0 0 0 0 0 0.1
5.0
5.0
47 1 48 0 0 0 0 0 0.1
5.0
5.0
48 1 49 0 0 0 0 0 0.1
5.0
5.0
49 1 50 0 0 0 0 0 0.1
5.0
5.0
50 1 51 0 0 0 0 0 0.1
5.0
5.0
51 1 52 0 0 0 0 0 0.1
5.0
5.0
52 1 53 0 0 0 0 0 0.1
5.0
5.0
53 1 54 0 0 0 0 0 0.1
5.0
5.0
54 1 55 0 0 0 0 0 0.1
5.0
5.0
55 1 56 0 0 0 0 0 0.1
5.0
5.0
56 1 57 0 0 0 0 0 0.1
5.0
5.0
57 1 58 0 0 0 0 0 0.1
5.0
5.0
58 1 59 0 0 0 0 0 0.1
5.0
5.0
59 1 60 0 0 0 0 0 0.1
5.0
5.0
60 1 61 0 0 0 0 0 0.1
5.0
5.0
61 1 62 0 0 0 0 0 0.1
5.0
5.0
62 1 63 0 0 0 0 0 0.1
5.0
5.0
63 1 64 0 0 0 0 0 0.1
5.0
5.0
64 1 65 0 0 0 0 0 0.1
5.0
5.0
65 1 66 0 0 0 0 0 0.1
5.0
5.0
66 1 67 0 0 0 0 0 0.1
5.0
5.0
67 1 68 0 0 0 0 0 0.1
5.0
5.0
68 1 69 0 0 0 0 0 0.1
5.0
5.0
69 1 70 0 0 0 0 0 0.1
5.0
5.0
70 1 71 0 0 0 0 0 0.1
5.0
5.0
71 1 72 0 0 0 0 0 0.1
5.0
5.0
72 1 73 0 0 0 0 0 0.1
5.0
5.0
73 1 74 0 0 0 0 0 0.1
5.0
5.0
74 1 75 0 0 0 0 0 0.1
5.0
5.0
75 1 76 0 0 0 0 0 0.1
5.0
5.0
76 1 77 0 0 0 0 0 0.1
5.0
5.0
77 1 78 0 0 0 0 0 0.1
5.0
5.0
78 1 79 0 0 0 0 0 0.1
5.0
5.0
79 1 80 0 0 0 0 0 0.1
5.0
5.0
80 1 81 0 0 0 0 0 0.1
5.0
5.0
81 1 82 0 0 0 0 0 0.1
5.0
5.0
82 1 83 0 0 0 0 0 0.1
5.0
5.0
83 1 84 0 0 0 0 0 0.1
5.0
5.0
84 1 85 0 0 0 0 0 0.1
5.0
5.0
85 1 86 0 0 0 0 0 0.1
5.0
5.0
86 1 87 0 0 0 0 0 0.1
5.0
5.0
87 1 88 0 0 0 0 0 0.1
5.0
5.0
88 1 89 0 0 0 0 0 0.1
5.0
5.0
89 1 90 0 0 0 0 0 0.1
5.0
5.0
90 1 91 0 0 0 0 0 0.1
5.0
5.0
91 1 92 0 0 0 0 0 0.1
5.0
5.0
92 1 93 0 0 0 0 0 0.1
5.0
5.0
93 1 94 0 0 0 0 0 0.1
5.0
5.0
94 1 95 0 0 0 0 0 0.1
5.0
5.0
95 1 96 0 0 0 0 0 0.1
5.0
5.0
96 1 97 0 0 0 0 0 0.1
5.0
5.0
97 1 98 0 0 0 0 0 0.1
5.0
5.0
98 1 99 0 0 0 0 0 0.1
5.0
5.0
99 1 100 0 0 0 0 0 0.1
5.0
5.0
100 1 101 0 0 0 0 0 0.1
5.0
5.0
101 1 102 0 0 0 0 0 0.1
5.0
5.0
102 1 103 0 0 0 0 0 0.1
5.0
5.0
103 1 104 0 0 0 0 0 0.1
5.0
5.0
104 1 105 0 0 0 0 0 0.1
5.0
5.0
105 1 106 0 0 0 0 0 0.1
5.0
5.0
106 1 107 0 0 0 0 0 0.1
5.0
5.0
107 1 108 0 0 0 0 0 0.1
5.0
5.0
108 1 109 0 0 0 0 0 0.1
5.0
5.0
109 1 110 0 0 0 0 0 0.1
5.0
5.0
110 1 111 0 0 0 0 0 0.1
5.0
5.0
111 1 112 0 0 0 0 0 0.1
5.0
5.0
112 1 113 0 0 0 0 0 0.1
5.0
5.0
113 1 114 0 0 0 0 0 0.1
5.0
5.0
114 1 115 0 0 0 0 0 0.1
5.0
5.0
115 1 116 0 0 0 0 0 0.1
5.0
5.0
116 1 117 0 0 0 0 0 0.1
5.0
5.0
117 1 118 0 0 0 0 0 0.1
5.0
5.0
118 1 119 0 0 0 0 0 0.1
5.0
5.0
119 1 120 0 0 0 0 0 0.1
5.0
5.0
120 1 121 0 0 0 0 0 0.1
5.0
5.0
121 1 122 0 0 0 0 0 0.1
5.0
5.0
122 1 123 0 0 0 0 0 0.1
5.0
5.0
123 1 124 0 0 0 0 0 0.1
5.0
5.0
124 1 125 0 0 0 0 0 0.1
5.0
5.0
125 1 126 0 0 0 0 0 0.1
5.0
5.0
126 1 127 0 0 0 0 0 0.1
5.0
5.0
127 1 128 0 0 0 0 0 0.1
5.0
5.0
128 1 129 0 0 0 0 0 0.1
5.0
5.0
129 1 130 0 0 0 0 0 0.1
5.0
5.0
130 1 131 0 0 0 0 0 0.1
5.0
5.0
131 1 132 0 0 0 0 0 0.1
5.0
5.0
132 1 133 0 0 0 0 0 0.1
5.0
5.0
133 1 134 0 0 0 0 0 0.1
5.0
5.0
134 1 135 0 0 0 0 0 0.1
5.0
5.0
135 1 136 0 0 0 0 0 0.1
5.0
5.0
136 1 137 0 0 0 0 0 0.1
5.0
5.0
137 1 138 0 0 0 0 0 0.1
5.0
5.0
138 1 139 0 0 0 0 0 0.1
5.0
5.0
139 1 140 0 0 0 0 0 0.1
5.0
5.0
140 1 141 0 0 0 0 0 0.1
5.0
5.0
141 1 142 0 0 0 0 0 0.1
5.0
5.0
142 1 143 0 0 0 0 0 0.1
5.0
5.0
143 1 144 0 0 0 0 0 0.1
5.0
5.0
144 1 145 0 0 0 0 0 0.1
5.0
5.0
145 1 146 0 0 0 0 0 0.1
5.0
5.0
146 1 147 0 0 0 0 0 0.1
5.0
5.0
147 1 148 0 0 0 0 0 0.1
5.0
5.0
148 1 149 0 0 0 0 0 0.1
5.0
5.0
149 1 150 0 0 0 0 0 0.1
5.0
5.0
150 1 151 0 0 0 0 0 0.1
5.0
5.0
151 1 152 0 0 0 0 0 0.1
5.0
5.0
152 1 153 0 0 0 0 0 0.1
5.0
5.0
153 1 154 0 0 0 0 0 0.1
5.0
5.0
154 1 155 0 0 0 0 0 0.1
5.0
5.0
155 1 156 0 0 0 0 0 0.1
5.0
5.0
156 1 157 0 0 0 0 0 0.1
5.0
5.0
157 1 158 0 0 0 0 0 0.1
5.0
5.0
158 1 159 0 0 0 0 0 0.1
5.0
5.0
159 1 160 0 0 0 0 0 0.1
5.0
5.0
160 1 0 0 0 0 0 0 0.1
5.0
5.0
160 0 0 2
1 1 2 0 15469.5615234375 0 0 0 0.1
5.0
5.0
2 1 3 0 0 0 0 0 0.1
5.0
5.0
3 1 4 0 0 0 0 0 0.1
5.0
5.0
4 1 5 0 0 0 0 0 0.1
5.0
5.0
5 1 6 0 0 0 0 0 0.1
5.0
5.0
6 1 7 0 0 0 0 0 0.1
5.0
5.0
7 1 8 0 0 0 0 0 0.1
5.0
5.0
8 1 9 0 0 0 0 0 0.1
5.0
5.0
9 1 10 0 0 0 0 0 0.1
5.0
5.0
10 1 11 0 0 0 0 0 0.1
5.0
5.0
11 1 12 0 0 0 0 0 0.1
5.0
5.0
12 1 13 0 0 0 0 0 0.1
5.0
5.0
13 1 14 0 0 0 0 0 0.1
5.0
5.0
14 1 15 0 0 0 0 0 0.1
5.0
5.0
15 1 16 0 0 0 0 0 0.1
5.0
5.0
16 1 17 0 0 0 0 0 0.1
5.0
5.0
17 1 18 0 0 0 0 0 0.1
5.0
5.0
18 1 19 0 0 0 0 0 0.1
5.0
5.0
19 1 20 0 0 0 0 0 0.1
5.0
5.0
20 1 21 0 0 0 0 0 0.1
5.0
5.0
21 1 22 0 0 0 0 0 0.1
5.0
5.0
22 1 23 0 0 0 0 0 0.1
5.0
5.0
23 1 24 0 0 0 0 0 0.1
5.0
5.0
24 1 25 0 0 0 0 0 0.1
5.0
5.0
25 1 26 0 0 0 0 0 0.1
5.0
5.0
26 1 27 0 0 0 0 0 0.1
5.0
5.0
27 1 28 0 0 0 0 0 0.1
5.0
5.0
28 1 29 0 0 0 0 0 0.1
5.0
5.0
29 1 30 0 0 0 0 0 0.1
5.0
5.0
30 1 31 0 0 0 0 0 0.1
5.0
5.0
31 1 32 0 0 0 0 0 0.1
5.0
5.0
32 1 33 0 0 0 0 0 0.1
5.0
5.0
33 1 34 0 0 0 0 0 0.1
5.0
5.0
34 1 35 0 0 0 0 0 0.1
5.0
5.0
35 1 36 0 0 0 0 0 0.1
5.0
5.0
36 1 37 0 0 0 0 0 0.1
5.0
5.0
37 1 38 0 0 0 0 0 0.1
5.0
5.0
38 1 39 0 0 0 0 0 0.1
5.0
5.0
39 1 40 0 0 0 0 0 0.1
5.0
5.0
40 1 41 0 0 0 0 0 0.1
5.0
5.0
41 1 42 0 0 0 0 0 0.1
5.0
5.0
42 1 43 0 0 0 0 0 0.1
5.0
5.0
43 1 44 0 0 0 0 0 0.1
5.0
5.0
44 1 45 0 0 0 0 0 0.1
5.0
5.0
45 1 46 0 0 0 0 0 0.1
5.0
5.0
46 1 47 0 0 0 0 0 0.1
5.0
5.0
47 1 48 0 0 0 0 0 0.1
5.0
5.0
48 1 49 0 0 0 0 0 0.1
5.0
5.0
49 1 50 0 0 0 0 0 0.1
5.0
5.0
50 1 51 0 0 0 0 0 0.1
5.0
5.0
51 1 52 0 0 0 0 0 0.1
5.0
5.0
52 1 53 0 0 0 0 0 0.1
5.0
5.0
53 1 54 0 0 0 0 0 0.1
5.0
5.0
54 1 55 0 0 0 0 0 0.1
5.0
5.0
55 1 56 0 0 0 0 0 0.1
5.0
5.0
56 1 57 0 0 0 0 0 0.1
5.0
5.0
57 1 58 0 0 0 0 0 0.1
5.0
5.0
58 1 59 0 0 0 0 0 0.1
5.0
5.0
59 1 60 0 0 0 0 0 0.1
5.0
5.0
60 1 61 0 0 0 0 0 0.1
5.0
5.0
61 1 62 0 0 0 0 0 0.1
5.0
5.0
62 1 63 0 0 0 0 0 0.1
5.0
5.0
63 1 64 0 0 0 0 0 0.1
5.0
5.0
64 1 65 0 0 0 0 0 0.1
5.0
5.0
65 1 66 0 0 0 0 0 0.1
5.0
5.0
66 1 67 0 0 0 0 0 0.1
5.0
5.0
67 1 68 0 0 0 0 0 0.1
5.0
5.0
68 1 69 0 0 0 0 0 0.1
5.0
5.0
69 1 70 0 0 0 0 0 0.1
5.0
5.0
70 1 71 0 0 0 0 0 0.1
5.0
5.0
71 1 72 0 0 0 0 0 0.1
5.0
5.0
72 1 73 0 0 0 0 0 0.1
5.0
5.0
73 1 74 0 0 0 0 0 0.1
5.0
5.0
74 1 75 0 0 0 0 0 0.1
5.0
5.0
75 1 76 0 0 0 0 0 0.1
5.0
5.0
76 1 77 0 0 0 0 0 0.1
5.0
5.0
77 1 78 0 0 0 0 0 0.1
5.0
5.0
78 1 79 0 0 0 0 0 0.1
5.0
5.0
79 1 80 0 0 0 0 0 0.1
5.0
5.0
80 1 81 0 0 0 0 0 0.1
5.0
5.0
81 1 82 0 0 0 0 0 0.1
5.0
5.0
82 1 83 0 0 0 0 0 0.1
5.0
5.0
83 1 84 0 0 0 0 0 0.1
5.0
5.0
84 1 85 0 0 0 0 0 0.1
5.0
5.0
85 1 86 0 0 0 0 0 0.1
5.0
5.0
86 1 87 0 0 0 0 0 0.1
5.0
5.0
87 1 88 0 0 0 0 0 0.1
5.0
5.0
88 1 89 0 0 0 0 0 0.1
5.0
5.0
89 1 90 0 0 0 0 0 0.1
5.0
5.0
90 1 91 0 0 0 0 0 0.1
5.0
5.0
91 1 92 0 0 0 0 0 0.1
5.0
5.0
92 1 93 0 0 0 0 0 0.1
5.0
5.0
93 1 94 0 0 0 0 0 0.1
5.0
5.0
94 1 95 0 0 0 0 0 0.1
5.0
5.0
95 1 96 0 0 0 0 0 0.1
5.0
5.0
96 1 97 0 0 0 0 0 0.1
5.0
5.0
97 1 98 0 0 0 0 0 0.1
5.0
5.0
98 1 99 0 0 0 0 0 0.1
5.0
5.0
99 1 100 0 0 0 0 0 0.1
5.0
5.0
100 1 101 0 0 0 0 0 0.1
5.0
5.0
101 1 102 0 0 0 0 0 0.1
5.0
5.0
102 1 103 0 0 0 0 0 0.1
5.0
5.0
103 1 104 0 0 0 0 0 0.1
5.0
5.0
104 1 105 0 0 0 0 0 0.1
5.0
5.0
105 1 106 0 0 0 0 0 0.1
5.0
5.0
106 1 107 0 0 0 0 0 0.1
5.0
5.0
107 1 108 0 0 0 0 0 0.1
5.0
5.0
108 1 109 0 0 0 0 0 0.1
5.0
5.0
109 1 110 0 0 0 0 0 0.1
5.0
5.0
110 1 111 0 0 0 0 0 0.1
5.0
5.0
111 1 112 0 0 0 0 0 0.1
5.0
5.0
112 1 113 0 0 0 0 0 0.1
5.0
5.0
113 1 114 0 0 0 0 0 0.1
5.0
5.0
114 1 115 0 0 0 0 0 0.1
5.0
5.0
115 1 116 0 0 0 0 0 0.1
5.0
5.0
116 1 117 0 0 0 0 0 0.1
5.0
5.0
117 1 118 0 0 0 0 0 0.1
5.0
5.0
118 1 119 0 0 0 0 0 0.1
5.0
5.0
119 1 120 0 0 0 0 0 0.1
5.0
5.0
120 1 121 0 0 0 0 0 0.1
5.0
5.0
121 1 122 0 0 0 0 0 0.1
5.0
5.0
122 1 123 0 0 0 0 0 0.1
5.0
5.0
123 1 124 0 0 0 0 0 0.1
5.0
5.0
124 1 125 0 0 0 0 0 0.1
5.0
5.0
125 1 126 0 0 0 0 0 0.1
5.0
5.0
126 1 127 0 0 0 0 0 0.1
5.0
5.0
127 1 128 0 0 0 0 0 0.1
5.0
5.0
128 1 129 0 0 0 0 0 0.1
5.0
5.0
129 1 130 0 0 0 0 0 0.1
5.0
5.0
130 1 131 0 0 0 0 0 0.1
5.0
5.0
131 1 132 0 0 0 0 0 0.1
5.0
5.0
132 1 133 0 0 0 0 0 0.1
5.0
5.0
133 1 134 0 0 0 0 0 0.1
5.0
5.0
134 1 135 0 0 0 0 0 0.1
5.0
5.0
135 1 136 0 0 0 0 0 0.1
5.0
5.0
136 1 137 0 0 0 0 0 0.1
5.0
5.0
137 1 138 0 0 0 0 0 0.1
5.0
5.0
138 1 139 0 0 0 0 0 0.1
5.0
5.0
139 1 140 0 0 0 0 0 0.1
5.0
5.0
140 1 141 0 0 0 0 0 0.1
5.0
5.0
141 1 142 0 0 0 0 0 0.1
5.0
5.0
142 1 143 0 0 0 0 0 0.1
5.0
5.0
143 1 144 0 0 0 0 0 0.1
5.0
5.0
144 1 145 0 0 0 0 0 0.1
5.0
5.0
145 1 146 0 0 0 0 0 0.1
5.0
5.0
146 1 147 0 0 0 0 0 0.1
5.0
5.0
147 1 148 0 0 0 0 0 0.1
5.0
5.0
148 1 149 0 0 0 0 0 0.1
5.0
5.0
149 1 150 0 0 0 0 0 0.1
5.0
5.0
150 1 151 0 0 0 0 0 0.1
5.0
5.0
151 1 152 0 0 0 0 0 0.1
5.0
5.0
152 1 153 0 0 0 0 0 0.1
5.0
5.0
153 1 154 0 0 0 0 0 0.1
5.0
5.0
154 1 155 0 0 0 0 0 0.1
5.0
5.0
155 1 156 0 0 0 0 0 0.1
5.0
5.0
156 1 157 0 0 0 0 0 0.1
5.0
5.0
157 1 158 0 0 0 0 0 0.1
5.0
5.0
158 1 159 0 0 0 0 0 0.1
5.0
5.0
159 1 160 0 0 0 0 0 0.1
5.0
5.0
160 1 0 0 0 0 0 0 0.1
5.0
5.0
160 0 0 3
1 1 2 0 16498.060546875 0 0 0 0.1
5.0
5.0
2 1 3 0 0 0 0 0 0.1
5.0
5.0
3 1 4 0 0 0 0 0 0.1
5.0
5.0
4 1 5 0 0 0 0 0 0.1
5.0
5.0
5 1 6 0 0 0 0 0 0.1
5.0
5.0
6 1 7 0 0 0 0 0 0.1
5.0
5.0
7 1 8 0 0 0 0 0 0.1
5.0
5.0
8 1 9 0 0 0 0 0 0.1
5.0
5.0
9 1 10 0 0 0 0 0 0.1
5.0
5.0
10 1 11 0 0 0 0 0 0.1
5.0
5.0
11 1 12 0 0 0 0 0 0.1
5.0
5.0
12 1 13 0 0 0 0 0 0.1
5.0
5.0
13 1 14 0 0 0 0 0 0.1
5.0
5.0
14 1 15 0 0 0 0 0 0.1
5.0
5.0
15 1 16 0 0 0 0 0 0.1
5.0
5.0
16 1 17 0 0 0 0 0 0.1
5.0
5.0
17 1 18 0 0 0 0 0 0.1
5.0
5.0
18 1 19 0 0 0 0 0 0.1
5.0
5.0
19 1 20 0 0 0 0 0 0.1
5.0
5.0
20 1 21 0 0 0 0 0 0.1
5.0
5.0
21 1 22 0 0 0 0 0 0.1
5.0
5.0
22 1 23 0 0 0 0 0 0.1
5.0
5.0
23 1 24 0 0 0 0 0 0.1
5.0
5.0
24 1 25 0 0 0 0 0 0.1
5.0
5.0
25 1 26 0 0 0 0 0 0.1
5.0
5.0
26 1 27 0 0 0 0 0 0.1
5.0
5.0
27 1 28 0 0 0 0 0 0.1
5.0
5.0
28 1 29 0 0 0 0 0 0.1
5.0
5.0
29 1 30 0 0 0 0 0 0.1
5.0
5.0
30 1 31 0 0 0 0 0 0.1
5.0
5.0
31 1 32 0 0 0 0 0 0.1
5.0
5.0
32 1 33 0 0 0 0 0 0.1
5.0
5.0
33 1 34 0 0 0 0 0 0.1
5.0
5.0
34 1 35 0 0 0 0 0 0.1
5.0
5.0
35 1 36 0 0 0 0 0 0.1
5.0
5.0
36 1 37 0 0 0 0 0 0.1
5.0
5.0
37 1 38 0 0 0 0 0 0.1
5.0
5.0
38 1 39 0 0 0 0 0 0.1
5.0
5.0
39 1 40 0 0 0 0 0 0.1
5.0
5.0
40 1 41 0 0 0 0 0 0.1
5.0
5.0
41 1 42 0 0 0 0 0 0.1
5.0
5.0
42 1 43 0 0 0 0 0 0.1
5.0
5.0
43 1 44 0 0 0 0 0 0.1
5.0
5.0
44 1 45 0 0 0 0 0 0.1
5.0
5.0
45 1 46 0 0 0 0 0 0.1
5.0
5.0
46 1 47 0 0 0 0 0 0.1
5.0
5.0
47 1 48 0 0 0 0 0 0.1
5.0
5.0
48 1 49 0 0 0 0 0 0.1
5.0
5.0
49 1 50 0 0 0 0 0 0.1
5.0
5.0
50 1 51 0 0 0 0 0 0.1
5.0
5.0
51 1 52 0 0 0 0 0 0.1
5.0
5.0
52 1 53 0 0 0 0 0 0.1
5.0
5.0
53 1 54 0 0 0 0 0 0.1
5.0
5.0
54 1 55 0 0 0 0 0 0.1
5.0
5.0
55 1 56 0 0 0 0 0 0.1
5.0
5.0
56 1 57 0 0 0 0 0 0.1
5.0
5.0
57 1 58 0 0 0 0 0 0.1
5.0
5.0
58 1 59 0 0 0 0 0 0.1
5.0
5.0
59 1 60 0 0 0 0 0 0.1
5.0
5.0
60 1 61 0 0 0 0 0 0.1
5.0
5.0
61 1 62 0 0 0 0 0 0.1
5.0
5.0
62 1 63 0 0 0 0 0 0.1
5.0
5.0
63 1 64 0 0 0 0 0 0.1
5.0
5.0
64 1 65 0 0 0 0 0 0.1
5.0
5.0
65 1 66 0 0 0 0 0 0.1
5.0
5.0
66 1 67 0 0 0 0 0 0.1
5.0
5.0
67 1 68 0 0 0 0 0 0.1
5.0
5.0
68 1 69 0 0 0 0 0 0.1
5.0
5.0
69 1 70 0 0 0 0 0 0.1
5.0
5.0
70 1 71 0 0 0 0 0 0.1
5.0
5.0
71 1 72 0 0 0 0 0 0.1
5.0
5.0
72 1 73 0 0 0 0 0 0.1
5.0
5.0
73 1 74 0 0 0 0 0 0.1
5.0
5.0
74 1 75 0 0 0 0 0 0.1
5.0
5.0
75 1 76 0 0 0 0 0 0.1
5.0
5.0
76 1 77 0 0 0 0 0 0.1
5.0
5.0
77 1 78 0 0 0 0 0 0.1
5.0
5.0
78 1 79 0 0 0 0 0 0.1
5.0
5.0
79 1 80 0 0 0 0 0 0.1
5.0
5.0
80 1 81 0 0 0 0 0 0.1
5.0
5.0
81 1 82 0 0 0 0 0 0.1
5.0
5.0
82 1 83 0 0 0 0 0 0.1
5.0
5.0
83 1 84 0 0 0 0 0 0.1
5.0
5.0
84 1 85 0 0 0 0 0 0.1
5.0
5.0
85 1 86 0 0 0 0 0 0.1
5.0
5.0
86 1 87 0 0 0 0 0 0.1
5.0
5.0
87 1 88 0 0 0 0 0 0.1
5.0
5.0
88 1 89 0 0 0 0 0 0.1
5.0
5.0
89 1 90 0 0 0 0 0 0.1
5.0
5.0
90 1 91 0 0 0 0 0 0.1
5.0
5.0
91 1 92 0 0 0 0 0 0.1
5.0
5.0
92 1 93 0 0 0 0 0 0.1
5.0
5.0
93 1 94 0 0 0 0 0 0.1
5.0
5.0
94 1 95 0 0 0 0 0 0.1
5.0
5.0
95 1 96 0 0 0 0 0 0.1
5.0
5.0
96 1 97 0 0 0 0 0 0.1
5.0
5.0
97 1 98 0 0 0 0 0 0.1
5.0
5.0
98 1 99 0 0 0 0 0 0.1
5.0
5.0
99 1 100 0 0 0 0 0 0.1
5.0
5.0
100 1 101 0 0 0 0 0 0.1
5.0
5.0
101 1 102 0 0 0 0 0 0.1
5.0
5.0
102 1 103 0 0 0 0 0 0.1
5.0
5.0
103 1 104 0 0 0 0 0 0.1
5.0
5.0
104 1 105 0 0 0 0 0 0.1
5.0
5.0
105 1 106 0 0 0 0 0 0.1
5.0
5.0
106 1 107 0 0 0 0 0 0.1
5.0
5.0
107 1 108 0 0 0 0 0 0.1
5.0
5.0
108 1 109 0 0 0 0 0 0.1
5.0
5.0
109 1 110 0 0 0 0 0 0.1
5.0
5.0
110 1 111 0 0 0 0 0 0.1
5.0
5.0
111 1 112 0 0 0 0 0 0.1
5.0
5.0
112 1 113 0 0 0 0 0 0.1
5.0
5.0
113 1 114 0 0 0 0 0 0.1
5.0
5.0
114 1 115 0 0 0 0 0 0.1
5.0
5.0
115 1 116 0 0 0 0 0 0.1
5.0
5.0
116 1 117 0 0 0 0 0 0.1
5.0
5.0
117 1 118 0 0 0 0 0 0.1
5.0
5.0
118 1 119 0 0 0 0 0 0.1
5.0
5.0
119 1 120 0 0 0 0 0 0.1
5.0
5.0
120 1 121 0 0 0 0 0 0.1
5.0
5.0
121 1 122 0 0 0 0 0 0.1
5.0
5.0
122 1 123 0 0 0 0 0 0.1
5.0
5.0
123 1 124 0 0 0 0 0 0.1
5.0
5.0
124 1 125 0 0 0 0 0 0.1
5.0
5.0
125 1 126 0 0 0 0 0 0.1
5.0
5.0
126 1 127 0 0 0 0 0 0.1
5.0
5.0
127 1 128 0 0 0 0 0 0.1
5.0
5.0
128 1 129 0 0 0 0 0 0.1
5.0
5.0
129 1 130 0 0 0 0 0 0.1
5.0
5.0
130 1 131 0 0 0 0 0 0.1
5.0
5.0
131 1 132 0 0 0 0 0 0.1
5.0
5.0
132 1 133 0 0 0 0 0 0.1
5.0
5.0
133 1 134 0 0 0 0 0 0.1
5.0
5.0
134 1 135 0 0 0 0 0 0.1
5.0
5.0
135 1 136 0 0 0 0 0 0.1
5.0
5.0
136 1 137 0 0 0 0 0 0.1
5.0
5.0
137 1 138 0 0 0 0 0 0.1
5.0
5.0
138 1 139 0 0 0 0 0 0.1
5.0
5.0
139 1 140 0 0 0 0 0 0.1
5.0
5.0
140 1 141 0 0 0 0 0 0.1
5.0
5.0
141 1 142 0 0 0 0 0 0.1
5.0
5.0
142 1 143 0 0 0 0 0 0.1
5.0
5.0
143 1 144 0 0 0 0 0 0.1
5.0
5.0
144 1 145 0 0 0 0 0 0.1
5.0
5.0
145 1 146 0 0 0 0 0 0.1
5.0
5.0
146 1 147 0 0 0 0 0 0.1
5.0
5.0
147 1 148 0 0 0 0 0 0.1
5.0
5.0
148 1 149 0 0 0 0 0 0.1
5.0
5.0
149 1 150 0 0 0 0 0 0.1
5.0
5.0
150 1 151 0 0 0 0 0 0.1
5.0
5.0
151 1 152 0 0 0 0 0 0.1
5.0
5.0
152 1 153 0 0 0 0 0 0.1
5.0
5.0
153 1 154 0 0 0 0 0 0.1
5.0
5.0
154 1 155 0 0 0 0 0 0.1
5.0
5.0
155 1 156 0 0 0 0 0 0.1
5.0
5.0
156 1 157 0 0 0 0 0 0.1
5.0
5.0
157 1 158 0 0 0 0 0 0.1
5.0
5.0
158 1 159 0 0 0 0 0 0.1
5.0
5.0
159 1 160 0 0 0 0 0 0.1
5.0
5.0
160 1 0 0 0 0 0 0 0.1
5.0
5.0
160 0 0 4
1 1 2 0 15634.576171875 0 0 0 0.1
5.0
5.0
2 1 3 0 0 0 0 0 0.1
5.0
5.0
3 1 4 0 0 0 0 0 0.1
5.0
5.0
4 1 5 0 0 0 0 0 0.1
5.0
5.0
5 1 6 0 0 0 0 0 0.1
5.0
5.0
6 1 7 0 0 0 0 0 0.1
5.0
5.0
7 1 8 0 0 0 0 0 0.1
5.0
5.0
8 1 9 0 0 0 0 0 0.1
5.0
5.0
9 1 10 0 0 0 0 0 0.1
5.0
5.0
10 1 11 0 0 0 0 0 0.1
5.0
5.0
11 1 12 0 0 0 0 0 0.1
5.0
5.0
12 1 13 0 0 0 0 0 0.1
5.0
5.0
13 1 14 0 0 0 0 0 0.1
5.0
5.0
14 1 15 0 0 0 0 0 0.1
5.0
5.0
15 1 16 0 0 0 0 0 0.1
5.0
5.0
16 1 17 0 0 0 0 0 0.1
5.0
5.0
17 1 18 0 0 0 0 0 0.1
5.0
5.0
18 1 19 0 0 0 0 0 0.1
5.0
5.0
19 1 20 0 0 0 0 0 0.1
5.0
5.0
20 1 21 0 0 0 0 0 0.1
5.0
5.0
21 1 22 0 0 0 0 0 0.1
5.0
5.0
22 1 23 0 0 0 0 0 0.1
5.0
5.0
23 1 24 0 0 0 0 0 0.1
5.0
5.0
24 1 25 0 0 0 0 0 0.1
5.0
5.0
25 1 26 0 0 0 0 0 0.1
5.0
5.0
26 1 27 0 0 0 0 0 0.1
5.0
5.0
27 1 28 0 0 0 0 0 0.1
5.0
5.0
28 1 29 0 0 0 0 0 0.1
5.0
5.0
29 1 30 0 0 0 0 0 0.1
5.0
5.0
30 1 31 0 0 0 0 0 0.1
5.0
5.0