# GHB package for  MODFLOW-USG, generated by Flopy.
        50        50
        50         0 # stress period 1
      1473            33.5            70.0
      1474            33.5            70.0
      1475            33.5            70.0
      1476            33.5            70.0
      1477            33.5            70.0
      1478            33.5            70.0
      1479            33.5            70.0
      1480            33.5            70.0
      1481            33.5            70.0
      1482            33.5            70.0
      2972            33.5            70.0
      2973            33.5            70.0
      2974            33.5            70.0
      2975            33.5            70.0
      2976            33.5            70.0
      2977            33.5            70.0
      2978            33.5            70.0
      2979            33.5            70.0
      2980            33.5            70.0
      2981            33.5            70.0
      4471            33.5            70.0
      4472            33.5            70.0
      4473            33.5            70.0
      4474            33.5            70.0
      4475            33.5            70.0
      4476            33.5            70.0
      4477            33.5            70.0
      4478            33.5            70.0
      4479            33.5            70.0
      4480            33.5            70.0
      2999            35.5            70.0
      3000            35.5            70.0
      3001            35.5            70.0
      3002            35.5            70.0
      3003            35.5            70.0
      3004            35.5            70.0
      3005            35.5            70.0
      3006            35.5            70.0
      3007            35.5            70.0
      3008            35.5            70.0
      3009            35.5            70.0
      3010            35.5            70.0
      3011            35.5            70.0
      3012            35.5            70.0
      3013            35.5            70.0
      3023            35.5           4.375
      3027            35.5            17.5
      3028            35.5            70.0
      3029            35.5            70.0
      3030            35.5            70.0
        50         0 # stress period 2
      1473            33.5            70.0
      1474            33.5            70.0
      1475            33.5            70.0
      1476            33.5            70.0
      1477            33.5            70.0
      1478            33.5            70.0
      1479            33.5            70.0
      1480            33.5            70.0
      1481            33.5            70.0
      1482            33.5            70.0
      2972            33.5            70.0
      2973            33.5            70.0
      2974            33.5            70.0
      2975            33.5            70.0
      2976            33.5            70.0
      2977            33.5            70.0
      2978            33.5            70.0
      2979            33.5            70.0
      2980            33.5            70.0
      2981            33.5            70.0
      4471            33.5            70.0
      4472            33.5            70.0
      4473            33.5            70.0
      4474            33.5            70.0
      4475            33.5            70.0
      4476            33.5            70.0
      4477            33.5            70.0
      4478            33.5            70.0
      4479            33.5            70.0
      4480            33.5            70.0
      2999            35.5            70.0
      3000            35.5            70.0
      3001            35.5            70.0
      3002            35.5            70.0
      3003            35.5            70.0
      3004            35.5            70.0
      3005            35.5            70.0
      3006            35.5            70.0
      3007            35.5            70.0
      3008            35.5            70.0
      3009            35.5            70.0
      3010            35.5            70.0
      3011            35.5            70.0
      3012            35.5            70.0
      3013            35.5            70.0
      3023            35.5           4.375
      3027            35.5            17.5
      3028            35.5            70.0
      3029            35.5            70.0
      3030            35.5            70.0
        50         0 # stress period 3
      1473            33.5            70.0
      1474            33.5            70.0
      1475            33.5            70.0
      1476            33.5            70.0
      1477            33.5            70.0
      1478            33.5            70.0
      1479            33.5            70.0
      1480            33.5            70.0
      1481            33.5            70.0
      1482            33.5            70.0
      2972            33.5            70.0
      2973            33.5            70.0
      2974            33.5            70.0
      2975            33.5            70.0
      2976            33.5            70.0
      2977            33.5            70.0
      2978            33.5            70.0
      2979            33.5            70.0
      2980            33.5            70.0
      2981            33.5            70.0
      4471            33.5            70.0
      4472            33.5            70.0
      4473            33.5            70.0
      4474            33.5            70.0
      4475            33.5            70.0
      4476            33.5            70.0
      4477            33.5            70.0
      4478            33.5            70.0
      4479            33.5            70.0
      4480            33.5            70.0
      2999            35.5            70.0
      3000            35.5            70.0
      3001            35.5            70.0
      3002            35.5            70.0
      3003            35.5            70.0
      3004            35.5            70.0
      3005            35.5            70.0
      3006            35.5            70.0
      3007            35.5            70.0
      3008            35.5            70.0
      3009            35.5            70.0
      3010            35.5            70.0
      3011            35.5            70.0
      3012            35.5            70.0
      3013            35.5            70.0
      3023            35.5           4.375
      3027            35.5            17.5
      3028            35.5            70.0
      3029            35.5            70.0
      3030            35.5            70.0
        50         0 # stress period 4
      1473            33.5            70.0
      1474            33.5            70.0
      1475            33.5            70.0
      1476            33.5            70.0
      1477            33.5            70.0
      1478            33.5            70.0
      1479            33.5            70.0
      1480            33.5            70.0
      1481            33.5            70.0
      1482            33.5            70.0
      2972            33.5            70.0
      2973            33.5            70.0
      2974            33.5            70.0
      2975            33.5            70.0
      2976            33.5            70.0
      2977            33.5            70.0
      2978            33.5            70.0
      2979            33.5            70.0
      2980            33.5            70.0
      2981            33.5            70.0
      4471            33.5            70.0
      4472            33.5            70.0
      4473            33.5            70.0
      4474            33.5            70.0
      4475            33.5            70.0
      4476            33.5            70.0
      4477            33.5            70.0
      4478            33.5            70.0
      4479            33.5            70.0
      4480            33.5            70.0
      2999            35.5            70.0
      3000            35.5            70.0
      3001            35.5            70.0
      3002            35.5            70.0
      3003            35.5            70.0
      3004            35.5            70.0
      3005            35.5            70.0
      3006            35.5            70.0
      3007            35.5            70.0
      3008            35.5            70.0
      3009            35.5            70.0
      3010            35.5            70.0
      3011            35.5            70.0
      3012            35.5            70.0
      3013            35.5            70.0
      3023            35.5           4.375
      3027            35.5            17.5
      3028            35.5            70.0
      3029            35.5            70.0
      3030            35.5            70.0
        50         0 # stress period 5
      1473            33.5            70.0
      1474            33.5            70.0
      1475            33.5            70.0
      1476            33.5            70.0
      1477            33.5            70.0
      1478            33.5            70.0
      1479            33.5            70.0
      1480            33.5            70.0
      1481            33.5            70.0
      1482            33.5            70.0
      2972            33.5            70.0
      2973            33.5            70.0
      2974            33.5            70.0
      2975            33.5            70.0
      2976            33.5            70.0
      2977            33.5            70.0
      2978            33.5            70.0
      2979            33.5            70.0
      2980            33.5            70.0
      2981            33.5            70.0
      4471            33.5            70.0
      4472            33.5            70.0
      4473            33.5            70.0
      4474            33.5            70.0
      4475            33.5            70.0
      4476            33.5            70.0
      4477            33.5            70.0
      4478            33.5            70.0
      4479            33.5            70.0
      4480            33.5            70.0
      2999            35.5            70.0
      3000            35.5            70.0
      3001            35.5            70.0
      3002            35.5            70.0
      3003            35.5            70.0
      3004            35.5            70.0
      3005            35.5            70.0
      3006            35.5            70.0
      3007            35.5            70.0
      3008            35.5            70.0
      3009            35.5            70.0
      3010            35.5            70.0
      3011            35.5            70.0
      3012            35.5            70.0
      3013            35.5            70.0
      3023            35.5           4.375
      3027            35.5            17.5
      3028            35.5            70.0
      3029            35.5            70.0
      3030            35.5            70.0
        50         0 # stress period 6
      1473            33.5            70.0
      1474            33.5            70.0
      1475            33.5            70.0
      1476            33.5            70.0
      1477            33.5            70.0
      1478            33.5            70.0
      1479            33.5            70.0
      1480            33.5            70.0
      1481            33.5            70.0
      1482            33.5            70.0
      2972            33.5            70.0
      2973            33.5            70.0
      2974            33.5            70.0
      2975            33.5            70.0
      2976            33.5            70.0
      2977            33.5            70.0
      2978            33.5            70.0
      2979            33.5            70.0
      2980            33.5            70.0
      2981            33.5            70.0
      4471            33.5            70.0
      4472            33.5            70.0
      4473            33.5            70.0
      4474            33.5            70.0
      4475            33.5            70.0
      4476            33.5            70.0
      4477            33.5            70.0
      4478            33.5            70.0
      4479            33.5            70.0
      4480            33.5            70.0
      2999            35.5            70.0
      3000            35.5            70.0
      3001            35.5            70.0
      3002            35.5            70.0
      3003            35.5            70.0
      3004            35.5            70.0
      3005            35.5            70.0
      3006            35.5            70.0
      3007            35.5            70.0
      3008            35.5            70.0
      3009            35.5            70.0
      3010            35.5            70.0
      3011            35.5            70.0
      3012            35.5            70.0
      3013            35.5            70.0
      3023            35.5           4.375
      3027            35.5            17.5
      3028            35.5            70.0
      3029            35.5            70.0
      3030            35.5            70.0
        50         0 # stress period 7
      1473            33.5            70.0
      1474            33.5            70.0
      1475            33.5            70.0
      1476            33.5            70.0
      1477            33.5            70.0
      1478            33.5            70.0
      1479            33.5            70.0
      1480            33.5            70.0
      1481            33.5            70.0
      1482            33.5            70.0
      2972            33.5            70.0
      2973            33.5            70.0
      2974            33.5            70.0
      2975            33.5            70.0
      2976            33.5            70.0
      2977            33.5            70.0
      2978            33.5            70.0
      2979            33.5            70.0
      2980            33.5            70.0
      2981            33.5            70.0
      4471            33.5            70.0
      4472            33.5            70.0
      4473            33.5            70.0
      4474            33.5            70.0
      4475            33.5            70.0
      4476            33.5            70.0
      4477            33.5            70.0
      4478            33.5            70.0
      4479            33.5            70.0
      4480            33.5            70.0
      2999            35.5            70.0
      3000            35.5            70.0
      3001            35.5            70.0
      3002            35.5            70.0
      3003            35.5            70.0
      3004            35.5            70.0
      3005            35.5            70.0
      3006            35.5            70.0
      3007            35.5            70.0
      3008            35.5            70.0
      3009            35.5            70.0
      3010            35.5            70.0
      3011            35.5            70.0
      3012            35.5            70.0
      3013            35.5            70.0
      3023            35.5           4.375
      3027            35.5            17.5
      3028            35.5            70.0
      3029            35.5            70.0
      3030            35.5            70.0
        50         0 # stress period 8
      1473            33.5            70.0
      1474            33.5            70.0
      1475            33.5            70.0
      1476            33.5            70.0
      1477            33.5            70.0
      1478            33.5            70.0
      1479            33.5            70.0
      1480            33.5            70.0
      1481            33.5            70.0
      1482            33.5            70.0
      2972            33.5            70.0
      2973            33.5            70.0
      2974            33.5            70.0
      2975            33.5            70.0
      2976            33.5            70.0
      2977            33.5            70.0
      2978            33.5            70.0
      2979            33.5            70.0
      2980            33.5            70.0
      2981            33.5            70.0
      4471            33.5            70.0
      4472            33.5            70.0
      4473            33.5            70.0
      4474            33.5            70.0
      4475            33.5            70.0
      4476            33.5            70.0
      4477            33.5            70.0
      4478            33.5            70.0
      4479            33.5            70.0
      4480            33.5            70.0
      2999            35.5            70.0
      3000            35.5            70.0
      3001            35.5            70.0
      3002            35.5            70.0
      3003            35.5            70.0
      3004            35.5            70.0
      3005            35.5            70.0
      3006            35.5            70.0
      3007            35.5            70.0
      3008            35.5            70.0
      3009            35.5            70.0
      3010            35.5            70.0
      3011            35.5            70.0
      3012            35.5            70.0
      3013            35.5            70.0
      3023            35.5           4.375
      3027            35.5            17.5
      3028            35.5            70.0
      3029            35.5            70.0
      3030            35.5            70.0
        50         0 # stress period 9
      1473            33.5            70.0
      1474            33.5            70.0
      1475            33.5            70.0
      1476            33.5            70.0
      1477            33.5            70.0
      1478            33.5            70.0
      1479            33.5            70.0
      1480            33.5            70.0
      1481            33.5            70.0
      1482            33.5            70.0
      2972            33.5            70.0
      2973            33.5            70.0
      2974            33.5            70.0
      2975            33.5            70.0
      2976            33.5            70.0
      2977            33.5            70.0
      2978            33.5            70.0
      2979            33.5            70.0
      2980            33.5            70.0
      2981            33.5            70.0
      4471            33.5            70.0
      4472            33.5            70.0
      4473            33.5            70.0
      4474            33.5            70.0
      4475            33.5            70.0
      4476            33.5            70.0
      4477            33.5            70.0
      4478            33.5            70.0
      4479            33.5            70.0
      4480            33.5            70.0
      2999            35.5            70.0
      3000            35.5            70.0
      3001            35.5            70.0
      3002            35.5            70.0
      3003            35.5            70.0
      3004            35.5            70.0
      3005            35.5            70.0
      3006            35.5            70.0
      3007            35.5            70.0
      3008            35.5            70.0
      3009            35.5            70.0
      3010            35.5            70.0
      3011            35.5            70.0
      3012            35.5            70.0
      3013            35.5            70.0
      3023            35.5           4.375
      3027            35.5            17.5
      3028            35.5            70.0
      3029            35.5            70.0
      3030            35.5            70.0
        50         0 # stress period 10
      1473            33.5            70.0
      1474            33.5            70.0
      1475            33.5            70.0
      1476            33.5            70.0
      1477            33.5            70.0
      1478            33.5            70.0
      1479            33.5            70.0
      1480            33.5            70.0
      1481            33.5            70.0
      1482            33.5            70.0
      2972            33.5            70.0
      2973            33.5            70.0
      2974            33.5            70.0
      2975            33.5            70.0
      2976            33.5            70.0
      2977            33.5            70.0
      2978            33.5            70.0
      2979            33.5            70.0
      2980            33.5            70.0
      2981            33.5            70.0
      4471            33.5            70.0
      4472            33.5            70.0
      4473            33.5            70.0
      4474            33.5            70.0
      4475            33.5            70.0
      4476            33.5            70.0
      4477            33.5            70.0
      4478            33.5            70.0
      4479            33.5            70.0
      4480            33.5            70.0
      2999            35.5            70.0
      3000            35.5            70.0
      3001            35.5            70.0
      3002            35.5            70.0
      3003            35.5            70.0
      3004            35.5            70.0
      3005            35.5            70.0
      3006            35.5            70.0
      3007            35.5            70.0
      3008            35.5            70.0
      3009            35.5            70.0
      3010            35.5            70.0
      3011            35.5            70.0
      3012            35.5            70.0
      3013            35.5            70.0
      3023            35.5           4.375
      3027            35.5            17.5
      3028            35.5            70.0
      3029            35.5            70.0
      3030            35.5            70.0
        50         0 # stress period 11
      1473            33.5            70.0
      1474            33.5            70.0
      1475            33.5            70.0
      1476            33.5            70.0
      1477            33.5            70.0
      1478            33.5            70.0
      1479            33.5            70.0
      1480            33.5            70.0
      1481            33.5            70.0
      1482            33.5            70.0
      2972            33.5            70.0
      2973            33.5            70.0
      2974            33.5            70.0
      2975            33.5            70.0
      2976            33.5            70.0
      2977            33.5            70.0
      2978            33.5            70.0
      2979            33.5            70.0
      2980            33.5            70.0
      2981            33.5            70.0
      4471            33.5            70.0
      4472            33.5            70.0
      4473            33.5            70.0
      4474            33.5            70.0
      4475            33.5            70.0
      4476            33.5            70.0
      4477            33.5            70.0
      4478            33.5            70.0
      4479            33.5            70.0
      4480            33.5            70.0
      2999            35.5            70.0
      3000            35.5            70.0
      3001            35.5            70.0
      3002            35.5            70.0
      3003            35.5            70.0
      3004            35.5            70.0
      3005            35.5            70.0
      3006            35.5            70.0
      3007            35.5            70.0
      3008            35.5            70.0
      3009            35.5            70.0
      3010            35.5            70.0
      3011            35.5            70.0
      3012            35.5            70.0
      3013            35.5            70.0
      3023            35.5           4.375
      3027            35.5            17.5
      3028            35.5            70.0
      3029            35.5            70.0
      3030            35.5            70.0
        50         0 # stress period 12
      1473            33.5            70.0
      1474            33.5            70.0
      1475            33.5            70.0
      1476            33.5            70.0
      1477            33.5            70.0
      1478            33.5            70.0
      1479            33.5            70.0
      1480            33.5            70.0
      1481            33.5            70.0
      1482            33.5            70.0
      2972            33.5            70.0
      2973            33.5            70.0
      2974            33.5            70.0
      2975            33.5            70.0
      2976            33.5            70.0
      2977            33.5            70.0
      2978            33.5            70.0
      2979            33.5            70.0
      2980            33.5            70.0
      2981            33.5            70.0
      4471            33.5            70.0
      4472            33.5            70.0
      4473            33.5            70.0
      4474            33.5            70.0
      4475            33.5            70.0
      4476            33.5            70.0
      4477            33.5            70.0
      4478            33.5            70.0
      4479            33.5            70.0
      4480            33.5            70.0
      2999            35.5            70.0
      3000            35.5            70.0
      3001            35.5            70.0
      3002            35.5            70.0
      3003            35.5            70.0
      3004            35.5            70.0
      3005            35.5            70.0
      3006            35.5            70.0
      3007            35.5            70.0
      3008            35.5            70.0
      3009            35.5            70.0
      3010            35.5            70.0
      3011            35.5            70.0
      3012            35.5            70.0
      3013            35.5            70.0
      3023            35.5           4.375
      3027            35.5            17.5
      3028            35.5            70.0
      3029            35.5            70.0
      3030            35.5            70.0
        50         0 # stress period 13
      1473            33.5            70.0
      1474            33.5            70.0
      1475            33.5            70.0
      1476            33.5            70.0
      1477            33.5            70.0
      1478            33.5            70.0
      1479            33.5            70.0
      1480            33.5            70.0
      1481            33.5            70.0
      1482            33.5            70.0
      2972            33.5            70.0
      2973            33.5            70.0
      2974            33.5            70.0
      2975            33.5            70.0
      2976            33.5            70.0
      2977            33.5            70.0
      2978            33.5            70.0
      2979            33.5            70.0
      2980            33.5            70.0
      2981            33.5            70.0
      4471            33.5            70.0
      4472            33.5            70.0
      4473            33.5            70.0
      4474            33.5            70.0
      4475            33.5            70.0
      4476            33.5            70.0
      4477            33.5            70.0
      4478            33.5            70.0
      4479            33.5            70.0
      4480            33.5            70.0
      2999            35.5            70.0
      3000            35.5            70.0
      3001            35.5            70.0
      3002            35.5            70.0
      3003            35.5            70.0
      3004            35.5            70.0
      3005            35.5            70.0
      3006            35.5            70.0
      3007            35.5            70.0
      3008            35.5            70.0
      3009            35.5            70.0
      3010            35.5            70.0
      3011            35.5            70.0
      3012            35.5            70.0
      3013            35.5            70.0
      3023            35.5           4.375
      3027            35.5            17.5
      3028            35.5            70.0
      3029            35.5            70.0
      3030            35.5            70.0
        50         0 # stress period 14
      1473            33.5            70.0
      1474            33.5            70.0
      1475            33.5            70.0
      1476            33.5            70.0
      1477            33.5            70.0
      1478            33.5            70.0
      1479            33.5            70.0
      1480            33.5            70.0
      1481            33.5            70.0
      1482            33.5            70.0
      2972            33.5            70.0
      2973            33.5            70.0
      2974            33.5            70.0
      2975            33.5            70.0
      2976            33.5            70.0
      2977            33.5            70.0
      2978            33.5            70.0