# NOT generated by Flopy
BEGIN options
  NETCDF  FILEIN  disv01b.in.nc
END options

BEGIN packages
  DISV6  disv01b.disv  disv
  IC6  disv01b.ic  ic
  NPF6  disv01b.npf  npf
  CHD6  disv01b.chd  chd_0
  OC6  disv01b.oc  oc
END packages
