# File generated by Flopy version 3.10.0.dev1 on 01/14/2025 at 13:12:59.
BEGIN options
  PRINT_OPTION  summary
END options

