# File generated by Flopy version 3.10.0.dev1 on 01/14/2025 at 13:12:59.
BEGIN options
  START_DATE_TIME  2041-01-01t00:00:00-05:00
END options

BEGIN dimensions
  NPER  1
END dimensions

BEGIN perioddata
       1.00000000  1       1.00000000
END perioddata

