# File generated by Flopy version 3.10.0.dev1 on 01/14/2025 at 13:13:00.
BEGIN options
  HEAD  FILEOUT  disv01b.hds
END options

BEGIN period  1
  SAVE  HEAD  ALL
END period  1

