# Output control package file for MODFLOW, generated by Flopy.
HEAD PRINT FORMAT   0
HEAD SAVE UNIT    51
DRAWDOWN PRINT FORMAT   0
DRAWDOWN SAVE UNIT    52
COMPACT BUDGET FILES

period 1 step 1 
print budget
save budget
save head

period 2 step 1 
print budget
save budget

period 2 step 2 
print budget
save budget

period 2 step 3 
print budget
save budget

period 2 step 4 
print budget
save budget

period 2 step 5 
print budget
save budget

period 2 step 6 
print budget
save budget

period 2 step 7 
print budget
save budget

period 2 step 8 
print budget
save budget

period 2 step 9 
print budget
save budget

period 2 step 10 
print budget
save budget
save head

period 2 step 11 
print budget
save budget

period 2 step 12 
print budget
save budget

period 2 step 13 
print budget
save budget

period 2 step 14 
print budget
save budget

period 2 step 15 
print budget
save budget

period 2 step 16 
print budget
save budget

period 2 step 17 
print budget
save budget

period 2 step 18 
print budget
save budget

period 2 step 19 
print budget
save budget

period 2 step 20 
print budget
save budget
save head

period 2 step 21 
print budget
save budget

period 2 step 22 
print budget
save budget

period 2 step 23 
print budget
save budget

period 2 step 24 
print budget
save budget

period 2 step 25 
print budget
save budget

period 2 step 26 
print budget
save budget

period 2 step 27 
print budget
save budget

period 2 step 28 
print budget
save budget

period 2 step 29 
print budget
save budget

period 2 step 30 
print budget
save budget
save head

period 2 step 31 
print budget
save budget

period 2 step 32 
print budget
save budget

period 2 step 33 
print budget
save budget

period 2 step 34 
print budget
save budget

period 2 step 35 
print budget
save budget

period 2 step 36 
print budget
save budget

period 2 step 37 
print budget
save budget

period 2 step 38 
print budget
save budget

period 2 step 39 
print budget
save budget

period 2 step 40 
print budget
save budget
save head

period 2 step 41 
print budget
save budget

period 2 step 42 
print budget
save budget

period 2 step 43 
print budget
save budget

period 2 step 44 
print budget
save budget

period 2 step 45 
print budget
save budget

period 2 step 46 
print budget
save budget

period 2 step 47 
print budget
save budget

period 2 step 48 
print budget
save budget

period 2 step 49 
print budget
save budget

period 2 step 50 
print budget
save budget
save head

period 2 step 51 
print budget
save budget

period 2 step 52 
print budget
save budget

period 2 step 53 
print budget
save budget

period 2 step 54 
print budget
save budget

period 2 step 55 
print budget
save budget

period 2 step 56 
print budget
save budget

period 2 step 57 
print budget
save budget

period 2 step 58 
print budget
save budget

period 2 step 59 
print budget
save budget

period 2 step 60 
print budget
save budget
save head

period 2 step 61 
print budget
save budget

period 2 step 62 
print budget
save budget

period 2 step 63 
print budget
save budget

period 2 step 64 
print budget
save budget

period 2 step 65 
print budget
save budget

period 2 step 66 
print budget
save budget

period 2 step 67 
print budget
save budget

period 2 step 68 
print budget
save budget

period 2 step 69 
print budget
save budget

period 2 step 70 
print budget
save budget
save head

period 2 step 71 
print budget
save budget

period 2 step 72 
print budget
save budget

period 2 step 73 
print budget
save budget

period 2 step 74 
print budget
save budget

period 2 step 75 
print budget
save budget

period 2 step 76 
print budget
save budget

period 2 step 77 
print budget
save budget

period 2 step 78 
print budget
save budget

period 2 step 79 
print budget
save budget

period 2 step 80 
print budget
save budget
save head

period 2 step 81 
print budget
save budget

period 2 step 82 
print budget
save budget

period 2 step 83 
print budget
save budget

period 2 step 84 
print budget
save budget

period 2 step 85 
print budget
save budget

period 2 step 86 
print budget
save budget

period 2 step 87 
print budget
save budget

period 2 step 88 
print budget
save budget

period 2 step 89 
print budget
save budget

period 2 step 90 
print budget
save budget
save head

period 2 step 91 
print budget
save budget

period 2 step 92 
print budget
save budget

period 2 step 93 
print budget
save budget

period 2 step 94 
print budget
save budget

period 2 step 95 
print budget
save budget

period 2 step 96 
print budget
save budget

period 2 step 97 
print budget
save budget

period 2 step 98 
print budget
save budget

period 2 step 99 
print budget
save budget

period 2 step 100 
print budget
save budget
save head

