# PCG for MODFLOW, generated by Flopy.
39 50 1 0
0.0001 0.1 1.0 0 0 0 1.0 
