# STR for MODFLOW, generated by Flopy.
       998        93         3         0         1 86400.000        53         0
       998         0         0  # stress period 0
    5   276   106     1     1      -1.0000000    1477.3865967     626.5447998    1476.8865967    1477.3865967 
    5   277   106     1     2       0.0000000    1475.9626465    1385.6563721    1475.4626465    1475.9626465 
    5   278   106     1     3       0.0000000    1474.3645020     872.5643311    1473.8645020    1474.3645020 
    5   278   107     1     4       0.0000000    1473.3839111     513.0919800    1472.8839111    1473.3839111 
    5   279   107     1     5       0.0000000    1472.0402832    1385.6563721    1471.5402832    1472.0402832 
    5   280   107     1     6       0.0000000    1470.3533936     997.9354858    1469.8533936    1470.3533936 
    5   280   108     1     7       0.0000000    1469.3728027     387.7208252    1468.8728027    1469.3728027 
    5   281   108     1     8       0.0000000    1468.0325928    1506.2551270    1467.5325928    1468.0325928 
    5   282   108     1     9       0.0000000    1466.6840820     399.1914673    1466.1840820    1466.6840820 
    5   282   109     1    10       0.0000000    1465.4664307    1321.4614258    1464.9664307    1465.4664307 
    5   283   109     1    11       0.0000000    1464.1791992     497.5144958    1463.6791992    1464.1791992 
    5   283   110     1    12       0.0000000    1462.9615479    1223.1384277    1462.4615479    1462.9615479 
    5   284   110     1    13       0.0000000    1461.6743164     595.8375244    1461.1743164    1461.6743164 
    5   284   111     1    14       0.0000000    1460.2322998    1441.8601074    1459.7322998    1460.2322998 
    5   284   112     1    15       0.0000000    1458.8416748     523.2293701    1458.3416748    1458.8416748 
    5   285   112     1    16       0.0000000    1457.9055176     799.5414429    1457.4055176    1457.9055176 
    5   285   113     1    17       0.0000000    1456.4201660    1299.4466553    1455.9201660    1456.4201660 
    5   285   114     1    18       0.0000000    1454.9534912     773.0822754    1454.4534912    1454.9534912 
    5   284   114     1    19       0.0000000    1454.0416260     515.3881836    1453.5416260    1454.0416260 
    5   284   115     1    20       0.0000000    1452.7675781    1284.9246826    1452.2675781    1452.7675781 
    5   284   116     1    21       0.0000000    1451.6126709     347.0458679    1451.1126709    1451.6126709 
    5   285   116     1    22       0.0000000    1450.7050781     935.5148926    1450.2050781    1450.7050781 
    5   285   117     1    23       0.0000000    1449.1353760    1282.5607910    1448.6353760    1449.1353760 
    5   285   118     1    24       0.0000000    1447.3206787    1281.7828369    1446.8206787    1447.3206787 
    5   286   118     1    25       0.0000000    1446.0654297     492.0365906    1445.5654297    1446.0654297 
    5   286   119     1    26       0.0000000    1444.9493408    1085.0037842    1444.4493408    1444.9493408 
    5   287   119     1    27       0.0000000    1443.4885254     979.2258911    1442.9885254    1443.4885254 
    5   287   120     1    28       0.0000000    1442.3820801     584.3371582    1441.8820801    1442.3820801 
    5   288   120     1    29       0.0000000    1441.4942627     670.1975708    1440.9942627    1441.4942627 
    5   111    62     2     1      -1.0000000   13985.4277344     916.7111816    1428.9067383    1429.4067383 
    5   111    63     2     2       0.0000000   12961.7685547    1809.0405273    1428.0345459    1428.5345459 
    5   112    63     2     3       0.0000000   11645.1347656    1696.8308105    1426.9128418    1427.4128418 
    5   112    64     2     4       0.0000000   10305.9326172    1869.1314697    1425.7718506    1426.2718506 
    5   113    64     2     5       0.0000000    8989.2988281    1636.7398682    1424.6500244    1425.1500244 
    5   113    65     2     6       0.0000000    7650.0971680    1929.2224121    1423.5090332    1424.0090332 
    5   114    65     2     7       0.0000000    6333.4628906    1576.6490479    1422.3873291    1422.8873291 
    5   114    66     2     8       0.0000000    4994.2617188    1989.3133545    1421.2463379    1421.7463379 
    5   115    66     2     9       0.0000000    3677.6271973    1516.5581055    1420.1246338    1420.6246338 
    5   115    67     2    10       0.0000000    2338.4257812    2049.4042969    1418.9836426    1419.4836426 
    5   116    67     2    11       0.0000000    1493.7347412     199.7990875    1418.2639160    1418.7639160 
    5   288   120     3     1      -1.0000000    1440.6478271     698.6114502    1440.1478271    1440.6478271 
    5   288   121     3     2       0.0000000    1440.1068115     317.0652466    1439.6068115    1440.1068115 
    5   289   121     3     3       0.0000000    1439.1704102    1440.5363770    1438.6704102    1439.1704102 
    5   289   122     3     4       0.0000000    1438.2232666     337.5742188    1437.7232666    1438.2232666 
    5   290   122     3     5       0.0000000    1437.2935791    1407.6096191    1436.7935791    1437.2935791 
    5   290   123     3     6       0.0000000    1436.3240967     412.2574463    1435.8240967    1436.3240967 
    5   291   123     3     7       0.0000000    1435.4428711    1241.8619385    1434.9428711    1435.4428711 
    5   291   124     3     8       0.0000000    1434.5231934     484.5821228    1434.0231934    1434.5231934 
    5   292   124     3     9       0.0000000    1433.5948486    1258.0449219    1433.0948486    1433.5948486 
    5   293   124     3    10       0.0000000    1432.2049561    1350.9688721    1431.7049561    1432.2049561 
    5   294   124     3    11       0.0000000    1430.9235840    1054.3928223    1430.4235840    1430.9235840 
    5   294   125     3    12       0.0000000    1430.1240234     446.5748291    1429.6240234    1430.1240234 
    5   295   125     3    13       0.0000000    1429.2580566    1178.9575195    1428.7580566    1429.2580566 
    5   116    67     4     1      -1.0000000    1418.3718262    1120.7127686    1417.8718262    1418.3718262 
    5   116    68     4     2       0.0000000    1417.2209473    2808.9675293    1416.7209473    1417.2209473 
    5   117    68     4     3       0.0000000    1416.3052979     317.6135559    1415.8052979    1416.3052979 
    5   117    69     4     4       0.0000000    1415.2966309    3126.5810547    1414.7966309    1415.2966309 
    5   117    70     4     5       0.0000000    1414.1704102     718.7322998    1413.6704102    1414.1704102 
    5   118    70     4     6       0.0000000    1413.2547607    2407.8486328    1412.7547607    1413.2547607 
    5   118    71     4     7       0.0000000    1412.0356445    1755.0781250    1411.5356445    1412.0356445 
    5   119    71     4     8       0.0000000    1411.1199951    1371.5028076    1410.6199951    1411.1199951 
    5   119    72     4     9       0.0000000    1410.3092041    1397.1558838    1409.8092041    1410.3092041 
    4   353   191     5     1      -1.0000000    1390.8067627     400.4375610    1390.3054199    1390.8054199 
    4   352   191     5     2       0.0000000    1390.0023193    1267.2073975    1389.4951172    1389.9951172 
    4   351   191     5     3       0.0000000    1389.3582764      67.6565170    1388.8465576    1389.3465576 
    4   351   190     5     4       0.0000000    1388.7469482    1199.5509033    1388.2308350    1388.7308350 
    4   350   190     5     5       0.0000000    1387.5570068    1267.2073975    1387.0322266    1387.5322266 
    4   349   190     5     6       0.0000000    1386.3327637    1270.3851318    1385.7991943    1386.2991943 
    4   348   190     5     7       0.0000000    1385.1044922    1275.6588135    1384.5620117    1385.0620117 
    4   347   190     5     8       0.0000000    1383.8736572    1275.6588135    1383.3223877    1383.8223877 
    4   346   190     5     9       0.0000000    1382.9919434     551.9350586    1382.4343262    1382.9343262 
    4   346   189     5    10       0.0000000    1382.3765869     723.7237549    1381.8144531    1382.3144531 
    4   345   189     5    11       0.0000000    1381.4119873    1275.6588135    1380.8430176    1381.3430176 
    4   344   189     5    12       0.0000000    1380.1867676    1264.1154785    1379.6088867    1380.1088867 
    4   343   189     5    13       0.0000000    1378.9686279    1260.8597412    1378.3820801    1378.8820801 
    4   342   189     5    14       0.0000000    1377.7669678    1229.8940430    1377.1717529    1377.6717529 
    4   342   190     5    15       0.0000000    1377.1586914      30.9656296    1376.5592041    1377.0592041 
    4   341   190     5    16       0.0000000    1377.1219482      45.3909492    1376.5220947    1377.0220947 
    4   323   169     6     1      -1.0000000    1370.8372803     323.8992615    1370.3372803    1370.8372803 
    4   323   170     6     2       0.0000000    1370.0286865    1286.1680908    1369.5286865    1370.0286865 
    4   323   171     6     3       0.0000000    1368.8953857     970.3006592    1368.3953857    1368.8953857 
    4   322   171     6     4       0.0000000    1368.2493896     315.8674316    1367.7493896    1368.2493896 
    4   322   172     6     5       0.0000000    1367.4331055    1309.5808105    1366.9331055    1367.4331055 
    4   322   173     6     6       0.0000000    1366.0539551    1436.2497559    1365.5539551    1366.0539551 
    4   322   174     6     7       0.0000000    1365.2282715     207.7806091    1364.7282715    1365.2282715 
    4   321   174     6     8       0.0000000    1364.5069580    1228.4692383    1364.0069580    1364.5069580 
    4   321   175     6     9       0.0000000    1363.2598877    1254.5285645    1362.7598877    1363.2598877 
    4   320   175     6    10       0.0000000    1362.5279541     202.8441772    1362.0279541    1362.5279541 
    4   320   176     6    11       0.0000000    1361.6940918    1457.3726807    1361.1940918    1361.6940918 
    4   320   177     6    12       0.0000000    1360.5748291     771.0399170    1360.0748291    1360.5748291 
    4   319   177     6    13       0.0000000    1359.8079834     755.9322510    1359.3079834    1359.8079834 
    4   319   178     6    14       0.0000000    1358.8880615    1075.5678711    1358.3880615    1358.8880615 
    4   318   178     6    15       0.0000000    1357.9661865     760.0631714    1357.4661865    1357.9661865 
    4   318   179     6    16       0.0000000    1356.9982910    1167.0043945    1356.4982910    1356.9982910 
    4   317   179     6    17       0.0000000    1356.2183838     385.9926758    1355.7183838    1356.2183838 
    4   317   180     6    18       0.0000000    1355.5122070    1019.8982544    1355.0122070    1355.5122070 
    5   143    71     7     1      -1.0000000    1439.8829346     141.2819672    1439.3829346    1439.8829346 
    5   142    71     7     2       0.0000000    1438.7211914    1261.4461670    1438.2211914    1438.7211914 
    5   141    71     7     3       0.0000000    1436.6311035    1262.0754395    1436.1311035    1436.6311035 
    5   140    71     7     4       0.0000000    1434.5070801    1302.5844727    1434.0070801    1434.5070801 
    5   139    71     7     5       0.0000000    1432.6125488     984.7819824    1432.1125488    1432.6125488 
    5   139    72     7     6       0.0000000    1430.8801270    1107.0000000    1430.3801270    1430.8801270 
    5   138    72     7     7       0.0000000    1429.7565918     249.5205688    1429.2565918    1429.7565918 
    5   138    73     7     8       0.0000000    1428.2915039    1519.4000244    1427.7915039    1428.2915039 
    5   137    73     7     9       0.0000000    1426.2545166     940.0666504    1425.7545166    1426.2545166 
    5   137    74     7    10       0.0000000    1425.1252441     423.3362427    1424.6252441    1425.1252441 
    5   136    74     7    11       0.0000000    1423.6014404    1416.5141602    1423.1014404    1423.6014404 
    5   135    74     7    12       0.0000000    1421.6549072     933.7860107    1421.1549072    1421.6549072 
    5   135    75     7    13       0.0000000    1420.4971924     463.9841003    1419.9971924    1420.4971924 
    5   134    75     7    14       0.0000000    1419.0551758    1277.0677490    1418.5551758    1419.0551758 
    5   133    75     7    15       0.0000000    1416.9519043    1262.4810791    1416.4519043    1416.9519043 
    5   132    75     7    16       0.0000000    1414.8446045    1281.9000244    1414.3446045    1414.8446045 
    5   131    75     7    17       0.0000000    1412.8914795    1076.2950439    1412.3914795    1412.8914795 
    1   178   202     8     1      -1.0000000    1279.3978271    1032.1348877    1278.7996826    1279.2996826 
    1   178   203     8     2       0.0000000    1276.8240967    2750.8342285    1276.2329102    1276.7329102 
    1   165   197     9     1      -1.0000000    1274.3741455    1304.1033936    1273.7758789    1274.2758789 
    1   165   198     9     2       0.0000000    1272.5640869    1947.6065674    1271.9704590    1272.4704590 
    1   164   198     9     3       0.0000000    1271.1246338     638.4200439    1270.5346680    1271.0346680 
    2   137   191    10     1      -1.0000000    1250.7645264      38.9199257    1250.1654053    1250.6654053 
    2   136   191    10     2       0.0000000    1249.6019287      95.9506149    1249.0056152    1249.5056152 
    2   136   192    10     3       0.0000000    1246.5091553     262.8445740    1245.9205322    1246.4205322 
    2   136   193    10     4       0.0000000    1242.4429932     208.8731384    1241.8645020    1242.3645020 
    2   135   193    10     5       0.0000000    1239.0810547     181.1541290    1238.5108643    1239.0108643 
    2   135   194    10     6       0.0000000    1236.6583252      99.9050522    1236.0942383    1236.5942383 
    2   134   194    10     7       0.0000000    1232.9818115     326.6048889    1232.4268799    1232.9268799 
    2   133   194    10     8       0.0000000    1229.8887939      32.2225456    1229.3415527    1229.8415527 
    2   133   195    10     9       0.0000000    1227.2559814     273.2061768    1226.7153320    1227.2153320 
    2   132   195    10    10       0.0000000    1223.3852539     175.8440247    1222.8541260    1223.3541260 
    1   157   196    11     1      -1.0000000    1279.7454834     435.7528687    1279.1462402    1279.6462402 
    1   156   196    11     2       0.0000000    1278.1059570    1579.4965820    1277.5098877    1278.0098877 
    2   164   198    12     1      -1.0000000    1270.7170410       9.3580055    1270.1281738    1270.6281738 
    2   164   199    12     2       0.0000000    1269.2209473     258.7208862    1268.6357422    1269.1357422 
    2   164   200    12     3       0.0000000    1266.3339844     258.5440979    1265.7559814    1266.2559814 
    2   164   201    12     4       0.0000000    1263.8669434     183.4801025    1263.2951660    1263.7951660 
    2   163   201    12     5       0.0000000    1262.2033691     114.5773697    1261.6358643    1262.1358643 
    2   163   202    12     6       0.0000000    1260.0599365     269.4723511    1259.4978027    1259.9978027 
    2   163   203    12     7       0.0000000    1257.1433105     253.0951385    1256.5885010    1257.0885010 
    2   163   204    12     8       0.0000000    1254.3300781     250.9595337    1253.7823486    1254.2823486 
    2   163   205    12     9       0.0000000    1251.4808350     259.5532837    1250.9403076    1251.4403076 
    2   163   206    12    10       0.0000000    1249.6429443      69.7508240    1249.1070557    1249.6070557 
    2   162   206    12    11       0.0000000    1247.9954834     225.4231262    1247.4637451    1247.9637451 
    2   162   207    12    12       0.0000000    1245.2794189     261.2113647    1244.7545166    1245.2545166 
    2   162   208    12    13       0.0000000    1242.4038086     254.0367279    1241.8861084    1242.3861084 
    2   162   209    12    14       0.0000000    1240.9144287      12.8175163    1240.4005127    1240.9005127 
    2   178   203    13     1      -1.0000000    1274.9079590      32.7348900    1274.3220215    1274.8220215 
    2   178   204    13     2       0.0000000    1274.0408936     604.5395508    1273.4572754    1273.9572754 
    2   177   204    13     3       0.0000000    1272.0822754     834.9053955    1271.5039062    1272.0039062 
    2   177   205    13     4       0.0000000    1269.0368652    1403.2264404    1268.4667969    1268.9667969 
    2   177   206    13     5       0.0000000    1266.2008057     681.0487671    1265.6384277    1266.1384277 
    2   176   206    13     6       0.0000000    1263.5428467    1272.3607178    1262.9876709    1263.4876709 
    2   176   207    13     7       0.0000000    1260.0878906    1266.7741699    1259.5419922    1260.0419922 
    2   176   208    13     8       0.0000000    1256.5292969    1348.5203857    1255.9930420    1256.4930420 
    2   176   209    13     9       0.0000000    1252.8261719    1372.9819336    1252.2999268    1252.7999268 
    2   176   210    13    10       0.0000000    1250.5736084     282.4838867    1250.0534668    1250.5534668 
    2   175   210    13    11       0.0000000    1248.6015625    1166.7951660    1248.0867920    1248.5867920 
    2   175   211    13    12       0.0000000    1245.2435303    1301.1202393    1244.7377930    1245.2377930 
    2   175   212    13    13       0.0000000    1243.4481201      18.3929672    1242.9471436    1243.4471436 
    1   148   193    14     1      -1.0000000    1270.0532227    1485.5686035    1268.4770508    1269.9554443 
    1   147   193    14     2       0.0000000    1268.5382080     664.7723999    1266.9964600    1268.4434814 
    1   147   194    14     3       0.0000000    1265.9503174    3008.1376953    1264.4674072    1265.8609619 
    4   142   208    15     1      -1.0000000    1234.3400879     332.3486633    1233.7438965    1234.2438965 
    4   142   207    15     2       0.0000000    1233.4014893     345.8771057    1232.8131104    1233.3131104 
    4   143   207    15     3       0.0000000    1231.1318359    1294.1197510    1230.5622559    1231.0622559 
    4   143   206    15     4       0.0000000    1229.3079834      23.7078571    1228.7535400    1229.2535400 
    2   132   195    16     1      -1.0000000    1221.3181152      63.9649124    1220.7921143    1221.2921143 
    2   132   196    16     2       0.0000000    1220.0461426      83.5948486    1219.5233154    1220.0233154 
    2   131   196    16     3       0.0000000    1216.7224121     301.9877319    1216.2078857    1216.7078857 
    2   130   196    16     4       0.0000000    1214.0264893      10.7758989    1213.5186768    1214.0186768 
    5   131    75    17     1      -1.0000000    1411.9637451      71.7849731    1411.4637451    1411.9637451 
    5   131    76    17     2       0.0000000    1411.8276367     197.3753815    1411.3276367    1411.8276367 
    5   130    76    17     3       0.0000000    1411.0040283    1431.7041016    1410.5040283    1411.0040283 
    5   129    76    17     4       0.0000000    1409.8669434     817.5192871    1409.3669434    1409.8669434 
    5   129    77    17     5       0.0000000    1409.1040039     691.7277222    1408.6040039    1409.1040039 
    5   128    77    17     6       0.0000000    1408.0699463    1353.5283203    1407.5699463    1408.0699463 
    5   128    78    17     7       0.0000000    1407.2181396     331.4560547    1406.7181396    1407.2181396 
    5   127    78    17     8       0.0000000    1406.3736572    1339.1234131    1405.8736572    1406.3736572 
    5   127    79    17     9       0.0000000    1405.4283447     530.5268555    1404.9283447    1405.4283447 
    5   126    79    17    10       0.0000000    1404.5737305    1160.0035400    1404.0737305    1404.5737305 
    5   126    80    17    11       0.0000000    1403.6229248     720.7056885    1403.1229248    1403.6229248 
    5   125    80    17    12       0.0000000    1402.7894287     928.0657349    1402.2894287    1402.7894287 
    5   125    81    17    13       0.0000000    1401.8078613    1013.5717773    1401.3078613    1401.8078613 
    5   124    81    17    14       0.0000000    1400.9980469     588.1364746    1400.4980469    1400.9980469 
    5   124    82    17    15       0.0000000    1399.9698486    1445.7382812    1399.4698486    1399.9698486 
    5   123    82    17    16       0.0000000    1399.1583252     159.4789886    1398.6583252    1399.1583252 
    5   123    83    17    17       0.0000000    1398.2781982    1581.5285645    1397.7781982    1398.2781982 
    5   123    84    17    18       0.0000000    1397.3305664     292.9141541    1396.8305664    1397.3305664 
    5   122    84    17    19       0.0000000    1396.4381104    1472.4991455    1395.9381104    1396.4381104 
    5   121    84    17    20       0.0000000    1395.5468750     290.4380798    1395.0468750    1395.5468750 
    4   341   190    18     1      -1.0000000    1376.7000732    1224.3393555    1376.1019287    1376.6019287 
    4   340   190    18     2       0.0000000    1375.8853760    1270.0615234    1375.2908936    1375.7908936 
    4   339   190    18     3       0.0000000    1375.0521240    1281.1166992    1374.4613037    1374.9613037 
    4   338   190    18     4       0.0000000    1374.2081299    1302.5765381    1373.6212158    1374.1212158 
    4   337   190    18     5       0.0000000    1373.6560059     387.9309998    1373.0716553    1373.5716553 
    4   337   189    18     6       0.0000000    1373.2259521     928.8800659    1372.6434326    1373.1434326 
    4   336   189    18     7       0.0000000    1372.4442139    1464.3317871    1371.8653564    1372.3653564 
    4   335   189    18     8       0.0000000    1371.8436279     374.6414795    1371.2673340    1371.7673340 
    4   335   188    18     9       0.0000000    1371.3652344    1089.6903076    1370.7912598    1371.2912598 
    4   334   188    18    10       0.0000000    1370.5814209    1310.1077881    1370.0109863    1370.5109863 
    4   334   187    18    11       0.0000000    1370.1031494     154.2239990    1369.5347900    1370.0347900 
    4   333   187    18    12       0.0000000    1369.5427246    1561.6191406    1368.9769287    1369.4769287 
    4   332   187    18    13       0.0000000    1368.9083252     380.5681763    1368.3454590    1368.8454590 
    4   332   186    18    14       0.0000000    1368.3854980    1220.4030762    1367.8248291    1368.3248291 
    4   331   186    18    15       0.0000000    1367.7319336     780.2017822    1367.1744385    1367.6744385 
    4   331   185    18    16       0.0000000    1367.2091064     820.7694702    1366.6538086    1367.1538086 
    4   330   185    18    17       0.0000000    1366.4631348    1463.1605225    1365.9112549    1366.4112549 
    4   329   185    18    18       0.0000000    1365.9094238     232.0674744    1365.3599854    1365.8599854 
    4   329   184    18    19       0.0000000    1365.4915771    1046.9160156    1364.9440918    1365.4440918 
    4   328   184    18    20       0.0000000    1364.7319336    1278.9835205    1364.1878662    1364.6878662 
    4   327   184    18    21       0.0000000    1363.8964844    1278.9835205    1363.3562012    1363.8562012 
    4   326   184    18    22       0.0000000    1363.0452881    1326.9101562    1362.5089111    1363.0089111 
    4   325   184    18    23       0.0000000    1362.5704346     126.9850464    1362.0361328    1362.5361328 
    4   325   183    18    24       0.0000000    1362.1362305    1202.1308594    1361.6040039    1362.1040039 
    4   324   183    18    25       0.0000000    1361.3094482    1329.1159668    1360.7810059    1361.2810059 
    4   323   183    18    26       0.0000000    1360.4587402    1275.7648926    1359.9339600    1360.4339600 
    4   323   182    18    27       0.0000000    1360.0297852      37.3819580    1359.5069580    1360.0069580 
    4   322   182    18    28       0.0000000    1359.5924072    1301.5830078    1359.0716553    1359.5716553 
    4   321   182    18    29       0.0000000    1358.7421875    1301.5830078    1358.2252197    1358.7252197 
    4   320   182    18    30       0.0000000    1357.8997803    1277.4598389    1357.3867188    1357.8867188 
    4   320   181    18    31       0.0000000    1357.4505615      97.9474030    1356.9394531    1357.4394531 
    4   319   181    18    32       0.0000000    1356.9575195    1411.4404297    1356.4487305    1356.9487305 
    4   318   181    18    33       0.0000000    1356.0810547    1271.9630127    1355.5761719    1356.0761719 
    4   318   180    18    34       0.0000000    1355.6285400     113.3398056    1355.1257324    1355.6257324 
    4   317   180    18    35       0.0000000    1355.2957764     905.5878906    1354.7944336    1355.2944336 
    5   295   125    19     1      -1.0000000    1428.5017090     243.2521210    1428.0017090    1428.5017090 
    5   295   126    19     2       0.0000000    1428.1772461     371.6351929    1427.6772461    1428.1772461 
    5   296   126    19     3       0.0000000    1427.2945557    1301.6617432    1426.7945557    1427.2945557 
    5   296   127    19     4       0.0000000    1426.3719482     447.2135925    1425.8719482    1426.3719482 
    5   297   127    19     5       0.0000000    1425.2821045    1618.6457520    1424.7821045    1425.2821045 
    5   297   128    19     6       0.0000000    1424.3674316     115.2258301    1423.8674316    1424.3674316 
    5   298   128    19     7       0.0000000    1423.6257324    1290.6365967    1423.1257324    1423.6257324 
    5   298   129    19     8       0.0000000    1422.2679443    1283.1842041    1421.7679443    1422.2679443 
    5   299   129    19     9       0.0000000    1421.1343994     865.7100220    1420.6343994    1421.1343994 
    5   299   130    19    10       0.0000000    1420.4309082     467.7295837    1419.9309082    1420.4309082 
    5   300   130    19    11       0.0000000    1419.5101318    1277.7469482    1419.0101318    1419.5101318 
    5   301   130    19    12       0.0000000    1418.1856689    1232.7801514    1417.6856689    1418.1856689 
    5   301   131    19    13       0.0000000    1417.2413330     557.3240356    1416.7413330    1417.2413330 
    5   302   131    19    14       0.0000000    1416.3510742    1130.2254639    1415.8510742    1416.3510742 
    5   302   132    19    15       0.0000000    1415.4248047     625.4962769    1414.9248047    1415.4248047 
    5   303   132    19    16       0.0000000    1414.2971191    1512.1458740    1413.7971191    1414.2971191 
    5   304   132    19    17       0.0000000    1413.4187012     152.9705811    1412.9187012    1413.4187012 
    5   304   133    19    18       0.0000000    1412.7462158    1121.7843018    1412.2462158    1412.7462158 
    5   305   133    19    19       0.0000000    1411.4819336    1274.7548828    1410.9819336    1411.4819336 
    5   306   133    19    20       0.0000000    1410.0793457    1383.9827881    1409.5793457    1410.0793457 
    5   307   133    19    21       0.0000000    1409.1114502     450.6939087    1408.6114502    1409.1114502 
    5   307   134    19    22       0.0000000    1408.3189697    1051.6191406    1407.8189697    1408.3189697 
    5   308   134    19    23       0.0000000    1407.3815918     725.1239014    1406.8815918    1407.3815918 
    5   308   135    19    24       0.0000000    1406.9045410     179.2411499    1406.4045410    1406.9045410 
    5   307   135    19    25       0.0000000    1406.2396240    1081.0480957    1405.7396240    1406.2396240 
    5   307   136    19    26       0.0000000    1405.0045166    1260.2893066    1404.5045166    1405.0045166 
    5   307   137    19    27       0.0000000    1403.6784668    1253.2926025    1403.1784668    1403.6784668 
    5   307   138    19    28       0.0000000    1402.3579102    1250.0000000    1401.8579102    1402.3579102 
    5   307   139    19    29       0.0000000    1401.0333252    1260.8920898    1400.5333252    1401.0333252 
    5   307   140    19    30       0.0000000    1399.7225342    1223.7646484    1399.2225342    1399.7225342 
    5   308   140    19    31       0.0000000    1399.0500488      50.9901962    1398.5500488    1399.0500488 
    5   308   141    19    32       0.0000000    1398.3507080    1274.7548828    1397.8507080    1398.3507080 
    5   308   142    19    33       0.0000000    1397.2291260     851.2775269    1396.7291260    1397.2291260 
    5   119    72    20     1      -1.0000000    1409.5642090     723.8075562    1409.0642090    1409.5642090 
    5   119    73    20     2       0.0000000    1408.9073486     691.5949707    1408.4073486    1408.9073486 
    5   120    73    20     3       0.0000000    1408.3001709     616.9571533    1407.8001709    1408.3001709 
    5   120    74    20     4       0.0000000    1407.4067383    1308.5521240    1406.9067383    1407.4067383 
    5   120    75    20     5       0.0000000    1406.1923828    1308.5521240    1405.6923828    1406.1923828 
    5   120    76    20     6       0.0000000    1405.3426514     522.8543091    1404.8426514    1405.3426514 
    4   317   180    21     1      -1.0000000    1354.8729248     426.9368896    1354.3729248    1354.8729248 
    4   316   180    21     2       0.0000000    1354.3726807    1252.9473877    1353.8726807    1354.3726807 
    4   315   180    21     3       0.0000000    1353.6247559    1258.6856689    1353.1247559    1353.6247559 
    4   314   180    21     4       0.0000000    1352.8731689    1265.5504150    1352.3731689    1352.8731689 
    4   313   180    21     5       0.0000000    1352.1367188    1207.7255859    1351.6367188    1352.1367188 
    2   156   196    22     1      -1.0000000    1276.7165527      12.8179550    1276.1232910    1276.6232910 