# MODFLOW-USG Block-Centered Transport (BCT) Package
 3 0 4 1 0 1 0   -1.000000e+000 1.000000e-006    1 0 6.694036e-002 0 3  0  0  0  0  0  CHAINDECAY TIMEWEIGHT 1.0
CONSTANT  3.300000e-001              Porosity Layer 1
CONSTANT  3.300000e-001              Porosity Layer 2
CONSTANT  3.300000e-001              Porosity Layer 3
CONSTANT  3.300000e-001              Porosity Layer 4
CONSTANT  3.300000e-001              Porosity Layer 5
CONSTANT  1.600000e+000  BULKD Layer 1
CONSTANT  1.600000e+000  BULKD Layer 2
CONSTANT  1.600000e+000  BULKD Layer 3
CONSTANT  1.600000e+000  BULKD Layer 4
CONSTANT  1.600000e+000  BULKD Layer 5
INTERNAL  1.0  (FREE)  -1  ANGLEX by NJAG
 0.000000e+000 0.000000e+000 1.570796e+000 0.000000e+000
 0.000000e+000 3.141593e+000 0.000000e+000 1.570796e+000 0.000000e+000
 0.000000e+000 3.141593e+000 0.000000e+000 1.570796e+000 0.000000e+000
 0.000000e+000 3.141593e+000 0.000000e+000 1.570796e+000 0.000000e+000
 0.000000e+000 3.141593e+000 0.000000e+000 1.570796e+000 0.000000e+000
 0.000000e+000 3.141593e+000 0.000000e+000 1.570796e+000 0.000000e+000
 0.000000e+000 3.141593e+000 0.000000e+000 1.570796e+000 0.000000e+000
 0.000000e+000 3.141593e+000 0.000000e+000 1.570796e+000 0.000000e+000
 0.000000e+000 3.141593e+000 0.000000e+000 1.570796e+000 0.000000e+000
 0.000000e+000 3.141593e+000 0.000000e+000 1.570796e+000 0.000000e+000
 0.000000e+000 3.141593e+000 0.000000e+000 1.570796e+000 0.000000e+000
 0.000000e+000 3.141593e+000 0.000000e+000 1.570796e+000 0.000000e+000
 0.000000e+000 3.141593e+000 0.000000e+000 1.570796e+000 0.000000e+000
 0.000000e+000 3.141593e+000 0.000000e+000 1.570796e+000 0.000000e+000
 0.000000e+000 3.141593e+000 0.000000e+000 1.570796e+000 0.000000e+000
 0.000000e+000 3.141593e+000 0.000000e+000 1.570796e+000 0.000000e+000
 0.000000e+000 3.141593e+000 0.000000e+000 1.570796e+000 0.000000e+000
 0.000000e+000 3.141593e+000 0.000000e+000 1.570796e+000 0.000000e+000
 0.000000e+000 3.141593e+000 0.000000e+000 1.570796e+000 0.000000e+000
 0.000000e+000 3.141593e+000 0.000000e+000 1.570796e+000 0.000000e+000
 0.000000e+000 3.141593e+000 0.000000e+000 1.570796e+000 0.000000e+000
 0.000000e+000 3.141593e+000 0.000000e+000 1.570796e+000 0.000000e+000
 0.000000e+000 3.141593e+000 0.000000e+000 1.570796e+000 0.000000e+000
 0.000000e+000 3.141593e+000 0.000000e+000 1.570796e+000 0.000000e+000
 0.000000e+000 3.141593e+000 0.000000e+000 1.570796e+000 0.000000e+000
 0.000000e+000 3.141593e+000 0.000000e+000 1.570796e+000 0.000000e+000
 0.000000e+000 3.141593e+000 0.000000e+000 1.570796e+000 0.000000e+000
 0.000000e+000 3.141593e+000 0.000000e+000 1.570796e+000 0.000000e+000
 0.000000e+000 3.141593e+000 0.000000e+000 1.570796e+000 0.000000e+000
 0.000000e+000 3.141593e+000 0.000000e+000 1.570796e+000 0.000000e+000
 0.000000e+000 3.141593e+000 0.000000e+000 1.570796e+000 0.000000e+000
 0.000000e+000 3.141593e+000 0.000000e+000 1.570796e+000 0.000000e+000
 0.000000e+000 3.141593e+000 0.000000e+000 1.570796e+000 0.000000e+000
 0.000000e+000 3.141593e+000 0.000000e+000 1.570796e+000 0.000000e+000
 0.000000e+000 3.141593e+000 0.000000e+000 1.570796e+000 0.000000e+000
 0.000000e+000 3.141593e+000 0.000000e+000 1.570796e+000 0.000000e+000
 0.000000e+000 3.141593e+000 0.000000e+000 1.570796e+000 0.000000e+000
 0.000000e+000 3.141593e+000 0.000000e+000 1.570796e+000 0.000000e+000
 0.000000e+000 3.141593e+000 0.000000e+000 1.570796e+000 0.000000e+000
 0.000000e+000 3.141593e+000 0.000000e+000 1.570796e+000 0.000000e+000
 0.000000e+000 3.141593e+000 0.000000e+000 1.570796e+000 0.000000e+000
 0.000000e+000 3.141593e+000 0.000000e+000 1.570796e+000 0.000000e+000
 0.000000e+000 3.141593e+000 0.000000e+000 1.570796e+000 0.000000e+000
 0.000000e+000 3.141593e+000 0.000000e+000 1.570796e+000 0.000000e+000
 0.000000e+000 3.141593e+000 0.000000e+000 1.570796e+000 0.000000e+000
 0.000000e+000 3.141593e+000 0.000000e+000 1.570796e+000 0.000000e+000
 0.000000e+000 3.141593e+000 0.000000e+000 1.570796e+000 0.000000e+000
 0.000000e+000 3.141593e+000 0.000000e+000 1.570796e+000 0.000000e+000
 0.000000e+000 3.141593e+000 0.000000e+000 1.570796e+000 0.000000e+000
 0.000000e+000 3.141593e+000 0.000000e+000 1.570796e+000 0.000000e+000
 0.000000e+000 3.141593e+000 0.000000e+000 1.570796e+000 0.000000e+000
 0.000000e+000 3.141593e+000 0.000000e+000 1.570796e+000 0.000000e+000
 0.000000e+000 3.141593e+000 0.000000e+000 1.570796e+000 0.000000e+000
 0.000000e+000 3.141593e+000 0.000000e+000 1.570796e+000 0.000000e+000
 0.000000e+000 3.141593e+000 0.000000e+000 1.570796e+000 0.000000e+000
 0.000000e+000 3.141593e+000 0.000000e+000 1.570796e+000 0.000000e+000
 0.000000e+000 3.141593e+000 0.000000e+000 1.570796e+000 0.000000e+000
 0.000000e+000 3.141593e+000 0.000000e+000 1.570796e+000 0.000000e+000
 0.000000e+000 3.141593e+000 0.000000e+000 1.570796e+000 0.000000e+000
 0.000000e+000 3.141593e+000 0.000000e+000 1.570796e+000 0.000000e+000
 0.000000e+000 3.141593e+000 0.000000e+000 1.570796e+000 0.000000e+000
 0.000000e+000 3.141593e+000 0.000000e+000 1.570796e+000 0.000000e+000
 0.000000e+000 3.141593e+000 0.000000e+000 1.570796e+000 0.000000e+000
 0.000000e+000 3.141593e+000 0.000000e+000 1.570796e+000 0.000000e+000
 0.000000e+000 3.141593e+000 0.000000e+000 1.570796e+000 0.000000e+000
 0.000000e+000 3.141593e+000 0.000000e+000 1.570796e+000 0.000000e+000
 0.000000e+000 3.141593e+000 0.000000e+000 1.570796e+000 0.000000e+000
 0.000000e+000 3.141593e+000 0.000000e+000 1.570796e+000 0.000000e+000
 0.000000e+000 3.141593e+000 0.000000e+000 1.570796e+000 0.000000e+000
 0.000000e+000 3.141593e+000 0.000000e+000 1.570796e+000 0.000000e+000
 0.000000e+000 3.141593e+000 0.000000e+000 1.570796e+000 0.000000e+000
 0.000000e+000 3.141593e+000 0.000000e+000 1.570796e+000 0.000000e+000
 0.000000e+000 3.141593e+000 0.000000e+000 1.570796e+000 0.000000e+000
 0.000000e+000 3.141593e+000 0.000000e+000 1.570796e+000 0.000000e+000
 0.000000e+000 3.141593e+000 0.000000e+000 1.570796e+000 0.000000e+000
 0.000000e+000 3.141593e+000 0.000000e+000 1.570796e+000 0.000000e+000
 0.000000e+000 3.141593e+000 0.000000e+000 1.570796e+000 0.000000e+000
 0.000000e+000 3.141593e+000 0.000000e+000 1.570796e+000 0.000000e+000
 0.000000e+000 3.141593e+000 0.000000e+000 1.570796e+000 0.000000e+000
 0.000000e+000 3.141593e+000 0.000000e+000 1.570796e+000 0.000000e+000
 0.000000e+000 3.141593e+000 0.000000e+000 1.570796e+000 0.000000e+000
 0.000000e+000 3.141593e+000 0.000000e+000 1.570796e+000 0.000000e+000
 0.000000e+000 3.141593e+000 0.000000e+000 1.570796e+000 0.000000e+000
 0.000000e+000 3.141593e+000 0.000000e+000 1.570796e+000 0.000000e+000
 0.000000e+000 3.141593e+000 0.000000e+000 1.570796e+000 0.000000e+000
 0.000000e+000 3.141593e+000 0.000000e+000 1.570796e+000 0.000000e+000
 0.000000e+000 3.141593e+000 0.000000e+000 1.570796e+000 0.000000e+000
 0.000000e+000 3.141593e+000 0.000000e+000 1.570796e+000 0.000000e+000
 0.000000e+000 3.141593e+000 0.000000e+000 1.570796e+000 0.000000e+000
 0.000000e+000 3.141593e+000 0.000000e+000 1.570796e+000 0.000000e+000
 0.000000e+000 3.141593e+000 0.000000e+000 1.570796e+000 0.000000e+000
 0.000000e+000 3.141593e+000 0.000000e+000 1.570796e+000 0.000000e+000
 0.000000e+000 3.141593e+000 0.000000e+000 1.570796e+000 0.000000e+000
 0.000000e+000 3.141593e+000 0.000000e+000 1.570796e+000 0.000000e+000
 0.000000e+000 3.141593e+000 0.000000e+000 1.570796e+000 0.000000e+000
 0.000000e+000 3.141593e+000 0.000000e+000 1.570796e+000 0.000000e+000
 0.000000e+000 3.141593e+000 0.000000e+000 1.570796e+000 0.000000e+000
 0.000000e+000 3.141593e+000 0.000000e+000 1.570796e+000 0.000000e+000
 0.000000e+000 3.141593e+000 0.000000e+000 1.570796e+000 0.000000e+000
 0.000000e+000 3.141593e+000 1.570796e+000 0.000000e+000
 0.000000e+000 4.712389e+000 0.000000e+000 1.570796e+000 0.000000e+000
 0.000000e+000 4.712389e+000 3.141593e+000 0.000000e+000 1.570796e+000 0.000000e+000
 0.000000e+000 4.712389e+000 3.141593e+000 0.000000e+000 1.570796e+000 0.000000e+000
 0.000000e+000 4.712389e+000 3.141593e+000 0.000000e+000 1.570796e+000 0.000000e+000
 0.000000e+000 4.712389e+000 3.141593e+000 0.000000e+000 1.570796e+000 0.000000e+000
 0.000000e+000 4.712389e+000 3.141593e+000 0.000000e+000 1.570796e+000 0.000000e+000
 0.000000e+000 4.712389e+000 3.141593e+000 0.000000e+000 1.570796e+000 0.000000e+000
 0.000000e+000 4.712389e+000 3.141593e+000 0.000000e+000 1.570796e+000 0.000000e+000
 0.000000e+000 4.712389e+000 3.141593e+000 0.000000e+000 1.570796e+000 0.000000e+000
 0.000000e+000 4.712389e+000 3.141593e+000 0.000000e+000 1.570796e+000 0.000000e+000
 0.000000e+000 4.712389e+000 3.141593e+000 0.000000e+000 1.570796e+000 0.000000e+000
 0.000000e+000 4.712389e+000 3.141593e+000 0.000000e+000 1.570796e+000 0.000000e+000
 0.000000e+000 4.712389e+000 3.141593e+000 0.000000e+000 1.570796e+000 0.000000e+000
 0.000000e+000 4.712389e+000 3.141593e+000 0.000000e+000 1.570796e+000 0.000000e+000
 0.000000e+000 4.712389e+000 3.141593e+000 0.000000e+000 1.570796e+000 0.000000e+000
 0.000000e+000 4.712389e+000 3.141593e+000 0.000000e+000 1.570796e+000 0.000000e+000
 0.000000e+000 4.712389e+000 3.141593e+000 0.000000e+000 1.570796e+000 0.000000e+000
 0.000000e+000 4.712389e+000 3.141593e+000 0.000000e+000 1.570796e+000 0.000000e+000
 0.000000e+000 4.712389e+000 3.141593e+000 0.000000e+000 1.570796e+000 0.000000e+000
 0.000000e+000 4.712389e+000 3.141593e+000 0.000000e+000 1.570796e+000 0.000000e+000
 0.000000e+000 4.712389e+000 3.141593e+000 0.000000e+000 1.570796e+000 0.000000e+000
 0.000000e+000 4.712389e+000 3.141593e+000 0.000000e+000 1.570796e+000 0.000000e+000
 0.000000e+000 4.712389e+000 3.141593e+000 0.000000e+000 1.570796e+000 0.000000e+000
 0.000000e+000 4.712389e+000 3.141593e+000 0.000000e+000 1.570796e+000 0.000000e+000
 0.000000e+000 4.712389e+000 3.141593e+000 0.000000e+000 1.570796e+000 0.000000e+000
 0.000000e+000 4.712389e+000 3.141593e+000 0.000000e+000 1.570796e+000 0.000000e+000
 0.000000e+000 4.712389e+000 3.141593e+000 0.000000e+000 1.570796e+000 0.000000e+000
 0.000000e+000 4.712389e+000 3.141593e+000 0.000000e+000 1.570796e+000 0.000000e+000
 0.000000e+000 4.712389e+000 3.141593e+000 0.000000e+000 1.570796e+000 0.000000e+000
 0.000000e+000 4.712389e+000 3.141593e+000 0.000000e+000 1.570796e+000 0.000000e+000
 0.000000e+000 4.712389e+000 3.141593e+000 0.000000e+000 1.570796e+000 0.000000e+000
 0.000000e+000 4.712389e+000 3.141593e+000 0.000000e+000 1.570796e+000 0.000000e+000
 0.000000e+000 4.712389e+000 3.141593e+000 0.000000e+000 1.570796e+000 0.000000e+000
 0.000000e+000 4.712389e+000 3.141593e+000 0.000000e+000 1.570796e+000 0.000000e+000
 0.000000e+000 4.712389e+000 3.141593e+000 0.000000e+000 1.570796e+000 0.000000e+000
 0.000000e+000 4.712389e+000 3.141593e+000 0.000000e+000 1.570796e+000 0.000000e+000
 0.000000e+000 4.712389e+000 3.141593e+000 0.000000e+000 1.570796e+000 0.000000e+000
 0.000000e+000 4.712389e+000 3.141593e+000 0.000000e+000 1.570796e+000 0.000000e+000
 0.000000e+000 4.712389e+000 3.141593e+000 0.000000e+000 1.570796e+000 0.000000e+000
 0.000000e+000 4.712389e+000 3.141593e+000 0.000000e+000 1.570796e+000 0.000000e+000
 0.000000e+000 4.712389e+000 3.141593e+000 0.000000e+000 1.570796e+000 0.000000e+000
 0.000000e+000 4.712389e+000 3.141593e+000 0.000000e+000 1.570796e+000 0.000000e+000
 0.000000e+000 4.712389e+000 3.141593e+000 0.000000e+000 1.570796e+000 0.000000e+000
 0.000000e+000 4.712389e+000 3.141593e+000 0.000000e+000 1.570796e+000 0.000000e+000
 0.000000e+000 4.712389e+000 3.141593e+000 0.000000e+000 1.570796e+000 0.000000e+000
 0.000000e+000 4.712389e+000 3.141593e+000 0.000000e+000 1.570796e+000 0.000000e+000
 0.000000e+000 4.712389e+000 3.141593e+000 0.000000e+000 1.570796e+000 0.000000e+000
 0.000000e+000 4.712389e+000 3.141593e+000 0.000000e+000 1.570796e+000 0.000000e+000
 0.000000e+000 4.712389e+000 3.141593e+000 0.000000e+000 1.570796e+000 0.000000e+000
 0.000000e+000 4.712389e+000 3.141593e+000 0.000000e+000 1.570796e+000 0.000000e+000
 0.000000e+000 4.712389e+000 3.141593e+000 0.000000e+000 1.570796e+000 0.000000e+000
 0.000000e+000 4.712389e+000 3.141593e+000 0.000000e+000 1.570796e+000 0.000000e+000
 0.000000e+000 4.712389e+000 3.141593e+000 0.000000e+000 1.570796e+000 0.000000e+000
 0.000000e+000 4.712389e+000 3.141593e+000 0.000000e+000 1.570796e+000 0.000000e+000
 0.000000e+000 4.712389e+000 3.141593e+000 0.000000e+000 1.570796e+000 0.000000e+000
 0.000000e+000 4.712389e+000 3.141593e+000 0.000000e+000 1.570796e+000 0.000000e+000
 0.000000e+000 4.712389e+000 3.141593e+000 0.000000e+000 1.570796e+000 0.000000e+000
 0.000000e+000 4.712389e+000 3.141593e+000 0.000000e+000 1.570796e+000 0.000000e+000
 0.000000e+000 4.712389e+000 3.141593e+000 0.000000e+000 1.570796e+000 0.000000e+000
 0.000000e+000 4.712389e+000 3.141593e+000 0.000000e+000 1.570796e+000 0.000000e+000
 0.000000e+000 4.712389e+000 3.141593e+000 0.000000e+000 1.570796e+000 0.000000e+000
 0.000000e+000 4.712389e+000 3.141593e+000 0.000000e+000 1.570796e+000 0.000000e+000
 0.000000e+000 4.712389e+000 3.141593e+000 0.000000e+000 1.570796e+000 0.000000e+000
 0.000000e+000 4.712389e+000 3.141593e+000 0.000000e+000 1.570796e+000 0.000000e+000
 0.000000e+000 4.712389e+000 3.141593e+000 0.000000e+000 1.570796e+000 0.000000e+000
 0.000000e+000 4.712389e+000 3.141593e+000 0.000000e+000 1.570796e+000 0.000000e+000
 0.000000e+000 4.712389e+000 3.141593e+000 0.000000e+000 1.570796e+000 0.000000e+000
 0.000000e+000 4.712389e+000 3.141593e+000 0.000000e+000 1.570796e+000 0.000000e+000
 0.000000e+000 4.712389e+000 3.141593e+000 0.000000e+000 1.570796e+000 0.000000e+000
 0.000000e+000 4.712389e+000 3.141593e+000 0.000000e+000 1.570796e+000 0.000000e+000
 0.000000e+000 4.712389e+000 3.141593e+000 0.000000e+000 1.570796e+000 0.000000e+000
 0.000000e+000 4.712389e+000 3.141593e+000 0.000000e+000 1.570796e+000 0.000000e+000
 0.000000e+000 4.712389e+000 3.141593e+000 0.000000e+000 1.570796e+000 0.000000e+000
 0.000000e+000 4.712389e+000 3.141593e+000 0.000000e+000 1.570796e+000 0.000000e+000
 0.000000e+000 4.712389e+000 3.141593e+000 0.000000e+000 1.570796e+000 0.000000e+000
 0.000000e+000 4.712389e+000 3.141593e+000 0.000000e+000 1.570796e+000 0.000000e+000
 0.000000e+000 4.712389e+000 3.141593e+000 0.000000e+000 1.570796e+000 0.000000e+000
 0.000000e+000 4.712389e+000 3.141593e+000 0.000000e+000 1.570796e+000 0.000000e+000
 0.000000e+000 4.712389e+000 3.141593e+000 0.000000e+000 1.570796e+000 0.000000e+000
 0.000000e+000 4.712389e+000 3.141593e+000 0.000000e+000 1.570796e+000 0.000000e+000
 0.000000e+000 4.712389e+000 3.141593e+000 0.000000e+000 1.570796e+000 0.000000e+000
 0.000000e+000 4.712389e+000 3.141593e+000 0.000000e+000 1.570796e+000 0.000000e+000
 0.000000e+000 4.712389e+000 3.141593e+000 0.000000e+000 1.570796e+000 0.000000e+000
 0.000000e+000 4.712389e+000 3.141593e+000 0.000000e+000 1.570796e+000 0.000000e+000
 0.000000e+000 4.712389e+000 3.141593e+000 0.000000e+000 1.570796e+000 0.000000e+000
 0.000000e+000 4.712389e+000 3.141593e+000 0.000000e+000 1.570796e+000 0.000000e+000
 0.000000e+000 4.712389e+000 3.141593e+000 0.000000e+000 1.570796e+000 0.000000e+000
 0.000000e+000 4.712389e+000 3.141593e+000 0.000000e+000 1.570796e+000 0.000000e+000
 0.000000e+000 4.712389e+000 3.141593e+000 0.000000e+000 1.570796e+000 0.000000e+000
 0.000000e+000 4.712389e+000 3.141593e+000 0.000000e+000 1.570796e+000 0.000000e+000
 0.000000e+000 4.712389e+000 3.141593e+000 0.000000e+000 1.570796e+000 0.000000e+000
 0.000000e+000 4.712389e+000 3.141593e+000 0.000000e+000 1.570796e+000 0.000000e+000
 0.000000e+000 4.712389e+000 3.141593e+000 0.000000e+000 1.570796e+000 0.000000e+000
 0.000000e+000 4.712389e+000 3.141593e+000 0.000000e+000 1.570796e+000 0.000000e+000
 0.000000e+000 4.712389e+000 3.141593e+000 0.000000e+000 1.570796e+000 0.000000e+000
 0.000000e+000 4.712389e+000 3.141593e+000 0.000000e+000 1.570796e+000 0.000000e+000
 0.000000e+000 4.712389e+000 3.141593e+000 0.000000e+000 1.570796e+000 0.000000e+000
 0.000000e+000 4.712389e+000 3.141593e+000 0.000000e+000 1.570796e+000 0.000000e+000
 0.000000e+000 4.712389e+000 3.141593e+000 0.000000e+000 1.570796e+000 0.000000e+000
 0.000000e+000 4.712389e+000 3.141593e+000 1.570796e+000 0.000000e+000
 0.000000e+000 4.712389e+000 0.000000e+000 1.570796e+000 0.000000e+000
 0.000000e+000 4.712389e+000 3.141593e+000 0.000000e+000 1.570796e+000 0.000000e+000
 0.000000e+000 4.712389e+000 3.141593e+000 0.000000e+000 1.570796e+000 0.000000e+000
 0.000000e+000 4.712389e+000 3.141593e+000 0.000000e+000 1.570796e+000 0.000000e+000
 0.000000e+000 4.712389e+000 3.141593e+000 0.000000e+000 1.570796e+000 0.000000e+000
 0.000000e+000 4.712389e+000 3.141593e+000 0.000000e+000 1.570796e+000 0.000000e+000
 0.000000e+000 4.712389e+000 3.141593e+000 0.000000e+000 1.570796e+000 0.000000e+000
 0.000000e+000 4.712389e+000 3.141593e+000 0.000000e+000 1.570796e+000 0.000000e+000
 0.000000e+000 4.712389e+000 3.141593e+000 0.000000e+000 1.570796e+000 0.000000e+000
 0.000000e+000 4.712389e+000 3.141593e+000 0.000000e+000 1.570796e+000 0.000000e+000
 0.000000e+000 4.712389e+000 3.141593e+000 0.000000e+000 1.570796e+000 0.000000e+000
 0.000000e+000 4.712389e+000 3.141593e+000 0.000000e+000 1.570796e+000 0.000000e+000
 0.000000e+000 4.712389e+000 3.141593e+000 0.000000e+000 1.570796e+000 0.000000e+000
 0.000000e+000 4.712389e+000 3.141593e+000 0.000000e+000 1.570796e+000 0.000000e+000
 0.000000e+000 4.712389e+000 3.141593e+000 0.000000e+000 1.570796e+000 0.000000e+000
 0.000000e+000 4.712389e+000 3.141593e+000 0.000000e+000 1.570796e+000 0.000000e+000
 0.000000e+000 4.712389e+000 3.141593e+000 0.000000e+000 1.570796e+000 0.000000e+000
 0.000000e+000 4.712389e+000 3.141593e+000 0.000000e+000 1.570796e+000 0.000000e+000
 0.000000e+000 4.712389e+000 3.141593e+000 0.000000e+000 1.570796e+000 0.000000e+000
 0.000000e+000 4.712389e+000 3.141593e+000 0.000000e+000 1.570796e+000 0.000000e+000
 0.000000e+000 4.712389e+000 3.141593e+000 0.000000e+000 1.570796e+000 0.000000e+000
 0.000000e+000 4.712389e+000 3.141593e+000 0.000000e+000 1.570796e+000 0.000000e+000
 0.000000e+000 4.712389e+000 3.141593e+000 0.000000e+000 1.570796e+000 0.000000e+000
 0.000000e+000 4.712389e+000 3.141593e+000 0.000000e+000 1.570796e+000 0.000000e+000
 0.000000e+000 4.712389e+000 3.141593e+000 0.000000e+000 1.570796e+000 0.000000e+000
 0.000000e+000 4.712389e+000 3.141593e+000 0.000000e+000 1.570796e+000 0.000000e+000
 0.000000e+000 4.712389e+000 3.141593e+000 0.000000e+000 1.570796e+000 0.000000e+000
 0.000000e+000 4.712389e+000 3.141593e+000 0.000000e+000 1.570796e+000 0.000000e+000
 0.000000e+000 4.712389e+000 3.141593e+000 0.000000e+000 1.570796e+000 0.000000e+000
 0.000000e+000 4.712389e+000 3.141593e+000 0.000000e+000 1.570796e+000 0.000000e+000
 0.000000e+000 4.712389e+000 3.141593e+000 0.000000e+000 1.570796e+000 0.000000e+000
 0.000000e+000 4.712389e+000 3.141593e+000 0.000000e+000 1.570796e+000 0.000000e+000
 0.000000e+000 4.712389e+000 3.141593e+000 0.000000e+000 1.570796e+000 0.000000e+000
 0.000000e+000 4.712389e+000 3.141593e+000 0.000000e+000 1.570796e+000 0.000000e+000
 0.000000e+000 4.712389e+000 3.141593e+000 0.000000e+000 1.570796e+000 0.000000e+000
 0.000000e+000 4.712389e+000 3.141593e+000 0.000000e+000 1.570796e+000 0.000000e+000
 0.000000e+000 4.712389e+000 3.141593e+000 0.000000e+000 1.570796e+000 0.000000e+000
 0.000000e+000 4.712389e+000 3.141593e+000 0.000000e+000 1.570796e+000 0.000000e+000
 0.000000e+000 4.712389e+000 3.141593e+000 0.000000e+000 1.570796e+000 0.000000e+000
 0.000000e+000 4.712389e+000 3.141593e+000 0.000000e+000 1.570796e+000 0.000000e+000
 0.000000e+000 4.712389e+000 3.141593e+000 0.000000e+000 1.570796e+000 0.000000e+000
 0.000000e+000 4.712389e+000 3.141593e+000 0.000000e+000 1.570796e+000 0.000000e+000
 0.000000e+000 4.712389e+000 3.141593e+000 0.000000e+000 1.570796e+000 0.000000e+000
 0.000000e+000 4.712389e+000 3.141593e+000 0.000000e+000 1.570796e+000 0.000000e+000
 0.000000e+000 4.712389e+000 3.141593e+000 0.000000e+000 1.570796e+000 0.000000e+000
 0.000000e+000 4.712389e+000 3.141593e+000 0.000000e+000 1.570796e+000 0.000000e+000
 0.000000e+000 4.712389e+000 3.141593e+000 0.000000e+000 1.570796e+000 0.000000e+000
 0.000000e+000 4.712389e+000 3.141593e+000 0.000000e+000 1.570796e+000 0.000000e+000
 0.000000e+000 4.712389e+000 3.141593e+000 0.000000e+000 1.570796e+000 0.000000e+000
 0.000000e+000 4.712389e+000 3.141593e+000 0.000000e+000 1.570796e+000 0.000000e+000
 0.000000e+000 4.712389e+000 3.141593e+000 0.000000e+000 1.570796e+000 0.000000e+000
 0.000000e+000 4.712389e+000 3.141593e+000 0.000000e+000 1.570796e+000 0.000000e+000
 0.000000e+000 4.712389e+000 3.141593e+000 0.000000e+000 1.570796e+000 0.000000e+000
 0.000000e+000 4.712389e+000 3.141593e+000 0.000000e+000 1.570796e+000 0.000000e+000
 0.000000e+000 4.712389e+000 3.141593e+000 0.000000e+000 1.570796e+000 0.000000e+000
 0.000000e+000 4.712389e+000 3.141593e+000 0.000000e+000 1.570796e+000 0.000000e+000
 0.000000e+000 4.712389e+000 3.141593e+000 0.000000e+000 1.570796e+000 0.000000e+000
 0.000000e+000 4.712389e+000 3.141593e+000 0.000000e+000 1.570796e+000 0.000000e+000
 0.000000e+000 4.712389e+000 3.141593e+000 0.000000e+000 1.570796e+000 0.000000e+000
 0.000000e+000 4.712389e+000 3.141593e+000 0.000000e+000 1.570796e+000 0.000000e+000
 0.000000e+000 4.712389e+000 3.141593e+000 0.000000e+000 1.570796e+000 0.000000e+000
 0.000000e+000 4.712389e+000 3.141593e+000 0.000000e+000 1.570796e+000 0.000000e+000
 0.000000e+000 4.712389e+000 3.141593e+000 0.000000e+000 1.570796e+000 0.000000e+000
 0.000000e+000 4.712389e+000 3.141593e+000 0.000000e+000 1.570796e+000 0.000000e+000
 0.000000e+000 4.712389e+000 3.141593e+000 0.000000e+000 1.570796e+000 0.000000e+000
 0.000000e+000 4.712389e+000 3.141593e+000 0.000000e+000 1.570796e+000 0.000000e+000
 0.000000e+000 4.712389e+000 3.141593e+000 0.000000e+000 1.570796e+000 0.000000e+000
 0.000000e+000 4.712389e+000 3.141593e+000 0.000000e+000 1.570796e+000 0.000000e+000
 0.000000e+000 4.712389e+000 3.141593e+000 0.000000e+000 1.570796e+000 0.000000e+000
 0.000000e+000 4.712389e+000 3.141593e+000 0.000000e+000 1.570796e+000 0.000000e+000
 0.000000e+000 4.712389e+000 3.141593e+000 0.000000e+000 1.570796e+000 0.000000e+000
 0.000000e+000 4.712389e+000 3.141593e+000 0.000000e+000 1.570796e+000 0.000000e+000
 0.000000e+000 4.712389e+000 3.141593e+000 0.000000e+000 1.570796e+000 0.000000e+000
 0.000000e+000 4.712389e+000 3.141593e+000 0.000000e+000 1.570796e+000 0.000000e+000
 0.000000e+000 4.712389e+000 3.141593e+000 0.000000e+000 1.570796e+000 0.000000e+000
 0.000000e+000 4.712389e+000 3.141593e+000 0.000000e+000 1.570796e+000 0.000000e+000
 0.000000e+000 4.712389e+000 3.141593e+000 0.000000e+000 1.570796e+000 0.000000e+000
 0.000000e+000 4.712389e+000 3.141593e+000 0.000000e+000 1.570796e+000 0.000000e+000
 0.000000e+000 4.712389e+000 3.141593e+000 0.000000e+000 1.570796e+000 0.000000e+000
 0.000000e+000 4.712389e+000 3.141593e+000 0.000000e+000 1.570796e+000 0.000000e+000
 0.000000e+000 4.712389e+000 3.141593e+000 0.000000e+000 1.570796e+000 0.000000e+000
 0.000000e+000 4.712389e+000 3.141593e+000 0.000000e+000 1.570796e+000 0.000000e+000
 0.000000e+000 4.712389e+000 3.141593e+000 0.000000e+000 1.570796e+000 0.000000e+000
 0.000000e+000 4.712389e+000 3.141593e+000 0.000000e+000 1.570796e+000 0.000000e+000
 0.000000e+000 4.712389e+000 3.141593e+000 0.000000e+000 1.570796e+000 0.000000e+000
 0.000000e+000 4.712389e+000 3.141593e+000 0.000000e+000 1.570796e+000 0.000000e+000
 0.000000e+000 4.712389e+000 3.141593e+000 0.000000e+000 1.570796e+000 0.000000e+000
 0.000000e+000 4.712389e+000 3.141593e+000 0.000000e+000 1.570796e+000 0.000000e+000
 0.000000e+000 4.712389e+000 3.141593e+000 0.000000e+000 1.570796e+000 0.000000e+000
 0.000000e+000 4.712389e+000 3.141593e+000 0.000000e+000 1.570796e+000 0.000000e+000
 0.000000e+000 4.712389e+000 3.141593e+000 0.000000e+000 1.570796e+000 0.000000e+000
 0.000000e+000 4.712389e+000 3.141593e+000 0.000000e+000 1.570796e+000 0.000000e+000
 0.000000e+000 4.712389e+000 3.141593e+000 0.000000e+000 1.570796e+000 0.000000e+000
 0.000000e+000 4.712389e+000 3.141593e+000 0.000000e+000 1.570796e+000 0.000000e+000
 0.000000e+000 4.712389e+000 3.141593e+000 0.000000e+000 1.570796e+000 0.000000e+000
 0.000000e+000 4.712389e+000 3.141593e+000 0.000000e+000 1.570796e+000 0.000000e+000
 0.000000e+000 4.712389e+000 3.141593e+000 0.000000e+000 1.570796e+000 0.000000e+000
 0.000000e+000 4.712389e+000 3.141593e+000 0.000000e+000 1.570796e+000 0.000000e+000
 0.000000e+000 4.712389e+000 3.141593e+000 0.000000e+000 1.570796e+000 0.000000e+000
 0.000000e+000 4.712389e+000 3.141593e+000 1.570796e+000 0.000000e+000
 0.000000e+000 4.712389e+000 0.000000e+000 1.570796e+000 0.000000e+000
 0.000000e+000 4.712389e+000 3.141593e+000 0.000000e+000 1.570796e+000 0.000000e+000
 0.000000e+000 4.712389e+000 3.141593e+000 0.000000e+000 1.570796e+000 0.000000e+000
 0.000000e+000 4.712389e+000 3.141593e+000 0.000000e+000 1.570796e+000 0.000000e+000
 0.000000e+000 4.712389e+000 3.141593e+000 0.000000e+000 1.570796e+000 0.000000e+000
 0.000000e+000 4.712389e+000 3.141593e+000 0.000000e+000 1.570796e+000 0.000000e+000
 0.000000e+000 4.712389e+000 3.141593e+000 0.000000e+000 1.570796e+000 0.000000e+000
 0.000000e+000 4.712389e+000 3.141593e+000 0.000000e+000 1.570796e+000 0.000000e+000
 0.000000e+000 4.712389e+000 3.141593e+000 0.000000e+000 1.570796e+000 0.000000e+000
 0.000000e+000 4.712389e+000 3.141593e+000 0.000000e+000 1.570796e+000 0.000000e+000
 0.000000e+000 4.712389e+000 3.141593e+000 0.000000e+000 1.570796e+000 0.000000e+000
 0.000000e+000 4.712389e+000 3.141593e+000 0.000000e+000 1.570796e+000 0.000000e+000
 0.000000e+000 4.712389e+000 3.141593e+000 0.000000e+000 1.570796e+000 0.000000e+000
 0.000000e+000 4.712389e+000 3.141593e+000 0.000000e+000 1.570796e+000 0.000000e+000
 0.000000e+000 4.712389e+000 3.141593e+000 0.000000e+000 1.570796e+000 0.000000e+000
 0.000000e+000 4.712389e+000 3.141593e+000 0.000000e+000 1.570796e+000 0.000000e+000
 0.000000e+000 4.712389e+000 3.141593e+000 0.000000e+000 1.570796e+000 0.000000e+000
 0.000000e+000 4.712389e+000 3.141593e+000 0.000000e+000 1.570796e+000 0.000000e+000
 0.000000e+000 4.712389e+000 3.141593e+000 0.000000e+000 1.570796e+000 0.000000e+000
 0.000000e+000 4.712389e+000 3.141593e+000 0.000000e+000 1.570796e+000 0.000000e+000
 0.000000e+000 4.712389e+000 3.141593e+000 0.000000e+000 1.570796e+000 0.000000e+000
 0.000000e+000 4.712389e+000 3.141593e+000 0.000000e+000 1.570796e+000 0.000000e+000
 0.000000e+000 4.712389e+000 3.141593e+000 0.000000e+000 1.570796e+000 0.000000e+000
 0.000000e+000 4.712389e+000 3.141593e+000 0.000000e+000 1.570796e+000 0.000000e+000
 0.000000e+000 4.712389e+000 3.141593e+000 0.000000e+000 1.570796e+000 0.000000e+000
 0.000000e+000 4.712389e+000 3.141593e+000 0.000000e+000 1.570796e+000 0.000000e+000
 0.000000e+000 4.712389e+000 3.141593e+000 0.000000e+000 1.570796e+000 0.000000e+000
 0.000000e+000 4.712389e+000 3.141593e+000 0.000000e+000 1.570796e+000 0.000000e+000
 0.000000e+000 4.712389e+000 3.141593e+000 0.000000e+000 1.570796e+000 0.000000e+000
 0.000000e+000 4.712389e+000 3.141593e+000 0.000000e+000 1.570796e+000 0.000000e+000
 0.000000e+000 4.712389e+000 3.141593e+000 0.000000e+000 1.570796e+000 0.000000e+000
 0.000000e+000 4.712389e+000 3.141593e+000 0.000000e+000 1.570796e+000 0.000000e+000
 0.000000e+000 4.712389e+000 3.141593e+000 0.000000e+000 1.570796e+000 0.000000e+000
 0.000000e+000 4.712389e+000 3.141593e+000 0.000000e+000 1.570796e+000 0.000000e+000
 0.000000e+000 4.712389e+000 3.141593e+000 0.000000e+000 1.570796e+000 0.000000e+000
 0.000000e+000 4.712389e+000 3.141593e+000 0.000000e+000 1.570796e+000 0.000000e+000
 0.000000e+000 4.712389e+000 3.141593e+000 0.000000e+000 1.570796e+000 0.000000e+000
 0.000000e+000 4.712389e+000 3.141593e+000 0.000000e+000 1.570796e+000 0.000000e+000
 0.000000e+000 4.712389e+000 3.141593e+000 0.000000e+000 1.570796e+000 0.000000e+000
 0.000000e+000 4.712389e+000 3.141593e+000 0.000000e+000 1.570796e+000 0.000000e+000
 0.000000e+000 4.712389e+000 3.141593e+000 0.000000e+000 1.570796e+000 0.000000e+000
 0.000000e+000 4.712389e+000 3.141593e+000 0.000000e+000 1.570796e+000 0.000000e+000
 0.000000e+000 4.712389e+000 3.141593e+000 0.000000e+000 1.570796e+000 0.000000e+000
 0.000000e+000 4.712389e+000 3.141593e+000 0.000000e+000 1.570796e+000 0.000000e+000
 0.000000e+000 4.712389e+000 3.141593e+000 0.000000e+000 1.570796e+000 0.000000e+000
 0.000000e+000 4.712389e+000 3.141593e+000 0.000000e+000 1.570796e+000 0.000000e+000
 0.000000e+000 4.712389e+000 3.141593e+000 0.000000e+000 1.570796e+000 0.000000e+000
 0.000000e+000 4.712389e+000 3.141593e+000 0.000000e+000 1.570796e+000 0.000000e+000
 0.000000e+000 4.712389e+000 3.141593e+000 0.000000e+000 1.570796e+000 0.000000e+000
 0.000000e+000 4.712389e+000 3.141593e+000 0.000000e+000 1.570796e+000 0.000000e+000
 0.000000e+000 4.712389e+000 3.141593e+000 0.000000e+000 1.570796e+000 0.000000e+000
 0.000000e+000 4.712389e+000 3.141593e+000 0.000000e+000 1.570796e+000 0.000000e+000
 0.000000e+000 4.712389e+000 3.141593e+000 0.000000e+000 1.570796e+000 0.000000e+000
 0.000000e+000 4.712389e+000 3.141593e+000 0.000000e+000 1.570796e+000 0.000000e+000
 0.000000e+000 4.712389e+000 3.141593e+000 0.000000e+000 1.570796e+000 0.000000e+000
 0.000000e+000 4.712389e+000 3.141593e+000 0.000000e+000 1.570796e+000 0.000000e+000
 0.000000e+000 4.712389e+000 3.141593e+000 0.000000e+000 1.570796e+000 0.000000e+000
 0.000000e+000 4.712389e+000 3.141593e+000 0.000000e+000 1.570796e+000 0.000000e+000