# MODFLOW-USGs Constant-Head Boundary Package (CHD)
       200 AUX C01  AUX C02  AUX C03  AUX C04
200
 1   18.960000  18.960000 0.000000e+000 0.000000e+000 0.000000e+000 0.000000e+000
 100   15.000000  15.000000 0.000000e+000 0.000000e+000 0.000000e+000 0.000000e+000
 101   18.960000  18.960000 0.000000e+000 0.000000e+000 0.000000e+000 0.000000e+000
 200   15.000000  15.000000 0.000000e+000 0.000000e+000 0.000000e+000 0.000000e+000
 201   18.960000  18.960000 0.000000e+000 0.000000e+000 0.000000e+000 0.000000e+000
 300   15.000000  15.000000 0.000000e+000 0.000000e+000 0.000000e+000 0.000000e+000
 301   18.960000  18.960000 0.000000e+000 0.000000e+000 0.000000e+000 0.000000e+000
 400   15.000000  15.000000 0.000000e+000 0.000000e+000 0.000000e+000 0.000000e+000
 401   18.960000  18.960000 0.000000e+000 0.000000e+000 0.000000e+000 0.000000e+000
 500   15.000000  15.000000 0.000000e+000 0.000000e+000 0.000000e+000 0.000000e+000
 501   18.960000  18.960000 0.000000e+000 0.000000e+000 0.000000e+000 0.000000e+000
 600   15.000000  15.000000 0.000000e+000 0.000000e+000 0.000000e+000 0.000000e+000
 601   18.960000  18.960000 0.000000e+000 0.000000e+000 0.000000e+000 0.000000e+000
 700   15.000000  15.000000 0.000000e+000 0.000000e+000 0.000000e+000 0.000000e+000
 701   18.960000  18.960000 0.000000e+000 0.000000e+000 0.000000e+000 0.000000e+000
 800   15.000000  15.000000 0.000000e+000 0.000000e+000 0.000000e+000 0.000000e+000
 801   18.960000  18.960000 0.000000e+000 0.000000e+000 0.000000e+000 0.000000e+000
 900   15.000000  15.000000 0.000000e+000 0.000000e+000 0.000000e+000 0.000000e+000
 901   18.960000  18.960000 0.000000e+000 0.000000e+000 0.000000e+000 0.000000e+000
 1000   15.000000  15.000000 0.000000e+000 0.000000e+000 0.000000e+000 0.000000e+000
 1001   18.960000  18.960000 0.000000e+000 0.000000e+000 0.000000e+000 0.000000e+000
 1100   15.000000  15.000000 0.000000e+000 0.000000e+000 0.000000e+000 0.000000e+000
 1101   18.960000  18.960000 0.000000e+000 0.000000e+000 0.000000e+000 0.000000e+000
 1200   15.000000  15.000000 0.000000e+000 0.000000e+000 0.000000e+000 0.000000e+000
 1201   18.960000  18.960000 0.000000e+000 0.000000e+000 0.000000e+000 0.000000e+000
 1300   15.000000  15.000000 0.000000e+000 0.000000e+000 0.000000e+000 0.000000e+000
 1301   18.960000  18.960000 0.000000e+000 0.000000e+000 0.000000e+000 0.000000e+000
 1400   15.000000  15.000000 0.000000e+000 0.000000e+000 0.000000e+000 0.000000e+000
 1401   18.960000  18.960000 0.000000e+000 0.000000e+000 0.000000e+000 0.000000e+000
 1500   15.000000  15.000000 0.000000e+000 0.000000e+000 0.000000e+000 0.000000e+000
 1501   18.960000  18.960000 0.000000e+000 0.000000e+000 0.000000e+000 0.000000e+000
 1600   15.000000  15.000000 0.000000e+000 0.000000e+000 0.000000e+000 0.000000e+000
 1601   18.960000  18.960000 0.000000e+000 0.000000e+000 0.000000e+000 0.000000e+000
 1700   15.000000  15.000000 0.000000e+000 0.000000e+000 0.000000e+000 0.000000e+000
 1701   18.960000  18.960000 0.000000e+000 0.000000e+000 0.000000e+000 0.000000e+000
 1800   15.000000  15.000000 0.000000e+000 0.000000e+000 0.000000e+000 0.000000e+000
 1801   18.960000  18.960000 0.000000e+000 0.000000e+000 0.000000e+000 0.000000e+000
 1900   15.000000  15.000000 0.000000e+000 0.000000e+000 0.000000e+000 0.000000e+000
 1901   18.960000  18.960000 0.000000e+000 0.000000e+000 0.000000e+000 0.000000e+000
 2000   15.000000  15.000000 0.000000e+000 0.000000e+000 0.000000e+000 0.000000e+000
 2001   18.960000  18.960000 0.000000e+000 0.000000e+000 0.000000e+000 0.000000e+000
 2100   15.000000  15.000000 0.000000e+000 0.000000e+000 0.000000e+000 0.000000e+000
 2101   18.960000  18.960000 0.000000e+000 0.000000e+000 0.000000e+000 0.000000e+000
 2200   15.000000  15.000000 0.000000e+000 0.000000e+000 0.000000e+000 0.000000e+000
 2201   18.960000  18.960000 0.000000e+000 0.000000e+000 0.000000e+000 0.000000e+000
 2300   15.000000  15.000000 0.000000e+000 0.000000e+000 0.000000e+000 0.000000e+000
 2301   18.960000  18.960000 0.000000e+000 0.000000e+000 0.000000e+000 0.000000e+000
 2400   15.000000  15.000000 0.000000e+000 0.000000e+000 0.000000e+000 0.000000e+000
 2401   18.960000  18.960000 0.000000e+000 0.000000e+000 0.000000e+000 0.000000e+000
 2500   15.000000  15.000000 0.000000e+000 0.000000e+000 0.000000e+000 0.000000e+000
 2501   18.960000  18.960000 0.000000e+000 0.000000e+000 0.000000e+000 0.000000e+000
 2600   15.000000  15.000000 0.000000e+000 0.000000e+000 0.000000e+000 0.000000e+000
 2601   18.960000  18.960000 0.000000e+000 0.000000e+000 0.000000e+000 0.000000e+000
 2700   15.000000  15.000000 0.000000e+000 0.000000e+000 0.000000e+000 0.000000e+000
 2701   18.960000  18.960000 0.000000e+000 0.000000e+000 0.000000e+000 0.000000e+000
 2800   15.000000  15.000000 0.000000e+000 0.000000e+000 0.000000e+000 0.000000e+000
 2801   18.960000  18.960000 0.000000e+000 0.000000e+000 0.000000e+000 0.000000e+000
 2900   15.000000  15.000000 0.000000e+000 0.000000e+000 0.000000e+000 0.000000e+000
 2901   18.960000  18.960000 0.000000e+000 0.000000e+000 0.000000e+000 0.000000e+000
 3000   15.000000  15.000000 0.000000e+000 0.000000e+000 0.000000e+000 0.000000e+000
 3001   18.960000  18.960000 0.000000e+000 0.000000e+000 0.000000e+000 0.000000e+000
 3100   15.000000  15.000000 0.000000e+000 0.000000e+000 0.000000e+000 0.000000e+000
 3101   18.960000  18.960000 0.000000e+000 0.000000e+000 0.000000e+000 0.000000e+000
 3200   15.000000  15.000000 0.000000e+000 0.000000e+000 0.000000e+000 0.000000e+000
 3201   18.960000  18.960000 0.000000e+000 0.000000e+000 0.000000e+000 0.000000e+000
 3300   15.000000  15.000000 0.000000e+000 0.000000e+000 0.000000e+000 0.000000e+000
 3301   18.960000  18.960000 0.000000e+000 0.000000e+000 0.000000e+000 0.000000e+000
 3400   15.000000  15.000000 0.000000e+000 0.000000e+000 0.000000e+000 0.000000e+000
 3401   18.960000  18.960000 0.000000e+000 0.000000e+000 0.000000e+000 0.000000e+000
 3500   15.000000  15.000000 0.000000e+000 0.000000e+000 0.000000e+000 0.000000e+000
 3501   18.960000  18.960000 0.000000e+000 0.000000e+000 0.000000e+000 0.000000e+000
 3600   15.000000  15.000000 0.000000e+000 0.000000e+000 0.000000e+000 0.000000e+000
 3601   18.960000  18.960000 0.000000e+000 0.000000e+000 0.000000e+000 0.000000e+000
 3700   15.000000  15.000000 0.000000e+000 0.000000e+000 0.000000e+000 0.000000e+000
 3701   18.960000  18.960000 0.000000e+000 0.000000e+000 0.000000e+000 0.000000e+000
 3800   15.000000  15.000000 0.000000e+000 0.000000e+000 0.000000e+000 0.000000e+000
 3801   18.960000  18.960000 0.000000e+000 0.000000e+000 0.000000e+000 0.000000e+000
 3900   15.000000  15.000000 0.000000e+000 0.000000e+000 0.000000e+000 0.000000e+000
 3901   18.960000  18.960000 0.000000e+000 0.000000e+000 0.000000e+000 0.000000e+000
 4000   15.000000  15.000000 0.000000e+000 0.000000e+000 0.000000e+000 0.000000e+000
 4001   18.960000  18.960000 0.000000e+000 0.000000e+000 0.000000e+000 0.000000e+000
 4100   15.000000  15.000000 0.000000e+000 0.000000e+000 0.000000e+000 0.000000e+000
 4101   18.960000  18.960000 0.000000e+000 0.000000e+000 0.000000e+000 0.000000e+000
 4200   15.000000  15.000000 0.000000e+000 0.000000e+000 0.000000e+000 0.000000e+000
 4201   18.960000  18.960000 0.000000e+000 0.000000e+000 0.000000e+000 0.000000e+000
 4300   15.000000  15.000000 0.000000e+000 0.000000e+000 0.000000e+000 0.000000e+000
 4301   18.960000  18.960000 0.000000e+000 0.000000e+000 0.000000e+000 0.000000e+000
 4400   15.000000  15.000000 0.000000e+000 0.000000e+000 0.000000e+000 0.000000e+000
 4401   18.960000  18.960000 0.000000e+000 0.000000e+000 0.000000e+000 0.000000e+000
 4500   15.000000  15.000000 0.000000e+000 0.000000e+000 0.000000e+000 0.000000e+000
 4501   18.960000  18.960000 0.000000e+000 0.000000e+000 0.000000e+000 0.000000e+000
 4600   15.000000  15.000000 0.000000e+000 0.000000e+000 0.000000e+000 0.000000e+000
 4601   18.960000  18.960000 0.000000e+000 0.000000e+000 0.000000e+000 0.000000e+000
 4700   15.000000  15.000000 0.000000e+000 0.000000e+000 0.000000e+000 0.000000e+000
 4701   18.960000  18.960000 0.000000e+000 0.000000e+000 0.000000e+000 0.000000e+000
 4800   15.000000  15.000000 0.000000e+000 0.000000e+000 0.000000e+000 0.000000e+000
 4801   18.960000  18.960000 0.000000e+000 0.000000e+000 0.000000e+000 0.000000e+000
 4900   15.000000  15.000000 0.000000e+000 0.000000e+000 0.000000e+000 0.000000e+000
 4901   18.960000  18.960000 0.000000e+000 0.000000e+000 0.000000e+000 0.000000e+000
 5000   15.000000  15.000000 0.000000e+000 0.000000e+000 0.000000e+000 0.000000e+000
 5001   18.960000  18.960000 0.000000e+000 0.000000e+000 0.000000e+000 0.000000e+000
 5100   15.000000  15.000000 0.000000e+000 0.000000e+000 0.000000e+000 0.000000e+000
 5101   18.960000  18.960000 0.000000e+000 0.000000e+000 0.000000e+000 0.000000e+000
 5200   15.000000  15.000000 0.000000e+000 0.000000e+000 0.000000e+000 0.000000e+000
 5201   18.960000  18.960000 0.000000e+000 0.000000e+000 0.000000e+000 0.000000e+000
 5300   15.000000  15.000000 0.000000e+000 0.000000e+000 0.000000e+000 0.000000e+000
 5301   18.960000  18.960000 0.000000e+000 0.000000e+000 0.000000e+000 0.000000e+000
 5400   15.000000  15.000000 0.000000e+000 0.000000e+000 0.000000e+000 0.000000e+000
 5401   18.960000  18.960000 0.000000e+000 0.000000e+000 0.000000e+000 0.000000e+000
 5500   15.000000  15.000000 0.000000e+000 0.000000e+000 0.000000e+000 0.000000e+000
 5501   18.960000  18.960000 0.000000e+000 0.000000e+000 0.000000e+000 0.000000e+000
 5600   15.000000  15.000000 0.000000e+000 0.000000e+000 0.000000e+000 0.000000e+000
 5601   18.960000  18.960000 0.000000e+000 0.000000e+000 0.000000e+000 0.000000e+000
 5700   15.000000  15.000000 0.000000e+000 0.000000e+000 0.000000e+000 0.000000e+000
 5701   18.960000  18.960000 0.000000e+000 0.000000e+000 0.000000e+000 0.000000e+000
 5800   15.000000  15.000000 0.000000e+000 0.000000e+000 0.000000e+000 0.000000e+000
 5801   18.960000  18.960000 0.000000e+000 0.000000e+000 0.000000e+000 0.000000e+000
 5900   15.000000  15.000000 0.000000e+000 0.000000e+000 0.000000e+000 0.000000e+000
 5901   18.960000  18.960000 0.000000e+000 0.000000e+000 0.000000e+000 0.000000e+000
 6000   15.000000  15.000000 0.000000e+000 0.000000e+000 0.000000e+000 0.000000e+000
 6001   18.960000  18.960000 0.000000e+000 0.000000e+000 0.000000e+000 0.000000e+000
 6100   15.000000  15.000000 0.000000e+000 0.000000e+000 0.000000e+000 0.000000e+000
 6101   18.960000  18.960000 0.000000e+000 0.000000e+000 0.000000e+000 0.000000e+000
 6200   15.000000  15.000000 0.000000e+000 0.000000e+000 0.000000e+000 0.000000e+000
 6201   18.960000  18.960000 0.000000e+000 0.000000e+000 0.000000e+000 0.000000e+000
 6300   15.000000  15.000000 0.000000e+000 0.000000e+000 0.000000e+000 0.000000e+000
 6301   18.960000  18.960000 0.000000e+000 0.000000e+000 0.000000e+000 0.000000e+000
 6400   15.000000  15.000000 0.000000e+000 0.000000e+000 0.000000e+000 0.000000e+000
 6401   18.960000  18.960000 0.000000e+000 0.000000e+000 0.000000e+000 0.000000e+000
 6500   15.000000  15.000000 0.000000e+000 0.000000e+000 0.000000e+000 0.000000e+000
 6501   18.960000  18.960000 0.000000e+000 0.000000e+000 0.000000e+000 0.000000e+000
 6600   15.000000  15.000000 0.000000e+000 0.000000e+000 0.000000e+000 0.000000e+000
 6601   18.960000  18.960000 0.000000e+000 0.000000e+000 0.000000e+000 0.000000e+000
 6700   15.000000  15.000000 0.000000e+000 0.000000e+000 0.000000e+000 0.000000e+000
 6701   18.960000  18.960000 0.000000e+000 0.000000e+000 0.000000e+000 0.000000e+000
 6800   15.000000  15.000000 0.000000e+000 0.000000e+000 0.000000e+000 0.000000e+000
 6801   18.960000  18.960000 0.000000e+000 0.000000e+000 0.000000e+000 0.000000e+000
 6900   15.000000  15.000000 0.000000e+000 0.000000e+000 0.000000e+000 0.000000e+000
 6901   18.960000  18.960000 0.000000e+000 0.000000e+000 0.000000e+000 0.000000e+000
 7000   15.000000  15.000000 0.000000e+000 0.000000e+000 0.000000e+000 0.000000e+000
 7001   18.960000  18.960000 0.000000e+000 0.000000e+000 0.000000e+000 0.000000e+000
 7100   15.000000  15.000000 0.000000e+000 0.000000e+000 0.000000e+000 0.000000e+000
 7101   18.960000  18.960000 0.000000e+000 0.000000e+000 0.000000e+000 0.000000e+000
 7200   15.000000  15.000000 0.000000e+000 0.000000e+000 0.000000e+000 0.000000e+000
 7201   18.960000  18.960000 0.000000e+000 0.000000e+000 0.000000e+000 0.000000e+000
 7300   15.000000  15.000000 0.000000e+000 0.000000e+000 0.000000e+000 0.000000e+000
 7301   18.960000  18.960000 0.000000e+000 0.000000e+000 0.000000e+000 0.000000e+000
 7400   15.000000  15.000000 0.000000e+000 0.000000e+000 0.000000e+000 0.000000e+000
 7401   18.960000  18.960000 0.000000e+000 0.000000e+000 0.000000e+000 0.000000e+000
 7500   15.000000  15.000000 0.000000e+000 0.000000e+000 0.000000e+000 0.000000e+000
 7501   18.960000  18.960000 0.000000e+000 0.000000e+000 0.000000e+000 0.000000e+000
 7600   15.000000  15.000000 0.000000e+000 0.000000e+000 0.000000e+000 0.000000e+000
 7601   18.960000  18.960000 0.000000e+000 0.000000e+000 0.000000e+000 0.000000e+000
 7700   15.000000  15.000000 0.000000e+000 0.000000e+000 0.000000e+000 0.000000e+000
 7701   18.960000  18.960000 0.000000e+000 0.000000e+000 0.000000e+000 0.000000e+000
 7800   15.000000  15.000000 0.000000e+000 0.000000e+000 0.000000e+000 0.000000e+000
 7801   18.960000  18.960000 0.000000e+000 0.000000e+000 0.000000e+000 0.000000e+000
 7900   15.000000  15.000000 0.000000e+000 0.000000e+000 0.000000e+000 0.000000e+000
 7901   18.960000  18.960000 0.000000e+000 0.000000e+000 0.000000e+000 0.000000e+000
 8000   15.000000  15.000000 0.000000e+000 0.000000e+000 0.000000e+000 0.000000e+000
 8001   18.960000  18.960000 1.000000e-001 0.000000e+000 0.000000e+000 0.000000e+000
 8100   15.000000  15.000000 0.000000e+000 0.000000e+000 0.000000e+000 0.000000e+000
 8101   18.960000  18.960000 0.000000e+000 0.000000e+000 0.000000e+000 0.000000e+000
 8200   15.000000  15.000000 0.000000e+000 0.000000e+000 0.000000e+000 0.000000e+000
 8201   18.960000  18.960000 0.000000e+000 0.000000e+000 0.000000e+000 0.000000e+000
 8300   15.000000  15.000000 0.000000e+000 0.000000e+000 0.000000e+000 0.000000e+000
 8301   18.960000  18.960000 0.000000e+000 0.000000e+000 0.000000e+000 0.000000e+000
 8400   15.000000  15.000000 0.000000e+000 0.000000e+000 0.000000e+000 0.000000e+000
 8401   18.960000  18.960000 0.000000e+000 0.000000e+000 0.000000e+000 0.000000e+000
 8500   15.000000  15.000000 0.000000e+000 0.000000e+000 0.000000e+000 0.000000e+000
 8501   18.960000  18.960000 0.000000e+000 0.000000e+000 0.000000e+000 0.000000e+000
 8600   15.000000  15.000000 0.000000e+000 0.000000e+000 0.000000e+000 0.000000e+000
 8601   18.960000  18.960000 0.000000e+000 0.000000e+000 0.000000e+000 0.000000e+000
 8700   15.000000  15.000000 0.000000e+000 0.000000e+000 0.000000e+000 0.000000e+000
 8701   18.960000  18.960000 0.000000e+000 0.000000e+000 0.000000e+000 0.000000e+000
 8800   15.000000  15.000000 0.000000e+000 0.000000e+000 0.000000e+000 0.000000e+000
 8801   18.960000  18.960000 0.000000e+000 0.000000e+000 0.000000e+000 0.000000e+000
 8900   15.000000  15.000000 0.000000e+000 0.000000e+000 0.000000e+000 0.000000e+000
 8901   18.960000  18.960000 0.000000e+000 0.000000e+000 0.000000e+000 0.000000e+000
 9000   15.000000  15.000000 0.000000e+000 0.000000e+000 0.000000e+000 0.000000e+000
 9001   18.960000  18.960000 0.000000e+000 0.000000e+000 0.000000e+000 0.000000e+000
 9100   15.000000  15.000000 0.000000e+000 0.000000e+000 0.000000e+000 0.000000e+000
 9101   18.960000  18.960000 0.000000e+000 0.000000e+000 0.000000e+000 0.000000e+000
 9200   15.000000  15.000000 0.000000e+000 0.000000e+000 0.000000e+000 0.000000e+000
 9201   18.960000  18.960000 0.000000e+000 0.000000e+000 0.000000e+000 0.000000e+000
 9300   15.000000  15.000000 0.000000e+000 0.000000e+000 0.000000e+000 0.000000e+000
 9301   18.960000  18.960000 0.000000e+000 0.000000e+000 0.000000e+000 0.000000e+000
 9400   15.000000  15.000000 0.000000e+000 0.000000e+000 0.000000e+000 0.000000e+000
 9401   18.960000  18.960000 0.000000e+000 0.000000e+000 0.000000e+000 0.000000e+000
 9500   15.000000  15.000000 0.000000e+000 0.000000e+000 0.000000e+000 0.000000e+000
 9501   18.960000  18.960000 0.000000e+000 0.000000e+000 0.000000e+000 0.000000e+000
 9600   15.000000  15.000000 0.000000e+000 0.000000e+000 0.000000e+000 0.000000e+000
 9601   18.960000  18.960000 0.000000e+000 0.000000e+000 0.000000e+000 0.000000e+000
 9700   15.000000  15.000000 0.000000e+000 0.000000e+000 0.000000e+000 0.000000e+000
 9701   18.960000  18.960000 0.000000e+000 0.000000e+000 0.000000e+000 0.000000e+000
 9800   15.000000  15.000000 0.000000e+000 0.000000e+000 0.000000e+000 0.000000e+000
 9801   18.960000  18.960000 0.000000e+000 0.000000e+000 0.000000e+000 0.000000e+000
 9900   15.000000  15.000000 0.000000e+000 0.000000e+000 0.000000e+000 0.000000e+000
 9901   18.960000  18.960000 0.000000e+000 0.000000e+000 0.000000e+000 0.000000e+000
 10000   15.000000  15.000000 0.000000e+000 0.000000e+000 0.000000e+000 0.000000e+000
