# MODFLOW-USGs Prescribed Concentration (PCB) Package
 800 0
 1   0
 8001  1  1.000000e-001
