MT3DMS benchmark test problem #6
transport in 2-D radial flow field during an injection/withdrawl cycle
         1        31        31         2         4
 11 12  0  0  0  0  0  0 19  0  0 22 00 00 00 00 00 00 00 00 00 32 00 00
         0         0     IAPART,ISTRT
         1         0(31I2)                      -3    IBOUND-1
-1-1-1-1-1-1-1-1-1-1-1-1-1-1-1-1-1-1-1-1-1-1-1-1-1-1-1-1-1-1-1
-1 1 1 1 1 1 1 1 1 1 1 1 1 1 1 1 1 1 1 1 1 1 1 1 1 1 1 1 1 1-1         
-1 1 1 1 1 1 1 1 1 1 1 1 1 1 1 1 1 1 1 1 1 1 1 1 1 1 1 1 1 1-1         
-1 1 1 1 1 1 1 1 1 1 1 1 1 1 1 1 1 1 1 1 1 1 1 1 1 1 1 1 1 1-1         
-1 1 1 1 1 1 1 1 1 1 1 1 1 1 1 1 1 1 1 1 1 1 1 1 1 1 1 1 1 1-1         
-1 1 1 1 1 1 1 1 1 1 1 1 1 1 1 1 1 1 1 1 1 1 1 1 1 1 1 1 1 1-1         
-1 1 1 1 1 1 1 1 1 1 1 1 1 1 1 1 1 1 1 1 1 1 1 1 1 1 1 1 1 1-1         
-1 1 1 1 1 1 1 1 1 1 1 1 1 1 1 1 1 1 1 1 1 1 1 1 1 1 1 1 1 1-1         
-1 1 1 1 1 1 1 1 1 1 1 1 1 1 1 1 1 1 1 1 1 1 1 1 1 1 1 1 1 1-1         
-1 1 1 1 1 1 1 1 1 1 1 1 1 1 1 1 1 1 1 1 1 1 1 1 1 1 1 1 1 1-1         
-1 1 1 1 1 1 1 1 1 1 1 1 1 1 1 1 1 1 1 1 1 1 1 1 1 1 1 1 1 1-1         
-1 1 1 1 1 1 1 1 1 1 1 1 1 1 1 1 1 1 1 1 1 1 1 1 1 1 1 1 1 1-1         
-1 1 1 1 1 1 1 1 1 1 1 1 1 1 1 1 1 1 1 1 1 1 1 1 1 1 1 1 1 1-1         
-1 1 1 1 1 1 1 1 1 1 1 1 1 1 1 1 1 1 1 1 1 1 1 1 1 1 1 1 1 1-1         
-1 1 1 1 1 1 1 1 1 1 1 1 1 1 1 1 1 1 1 1 1 1 1 1 1 1 1 1 1 1-1         
-1 1 1 1 1 1 1 1 1 1 1 1 1 1 1 1 1 1 1 1 1 1 1 1 1 1 1 1 1 1-1         
-1 1 1 1 1 1 1 1 1 1 1 1 1 1 1 1 1 1 1 1 1 1 1 1 1 1 1 1 1 1-1         
-1 1 1 1 1 1 1 1 1 1 1 1 1 1 1 1 1 1 1 1 1 1 1 1 1 1 1 1 1 1-1         
-1 1 1 1 1 1 1 1 1 1 1 1 1 1 1 1 1 1 1 1 1 1 1 1 1 1 1 1 1 1-1         
-1 1 1 1 1 1 1 1 1 1 1 1 1 1 1 1 1 1 1 1 1 1 1 1 1 1 1 1 1 1-1         
-1 1 1 1 1 1 1 1 1 1 1 1 1 1 1 1 1 1 1 1 1 1 1 1 1 1 1 1 1 1-1         
-1 1 1 1 1 1 1 1 1 1 1 1 1 1 1 1 1 1 1 1 1 1 1 1 1 1 1 1 1 1-1         
-1 1 1 1 1 1 1 1 1 1 1 1 1 1 1 1 1 1 1 1 1 1 1 1 1 1 1 1 1 1-1         
-1 1 1 1 1 1 1 1 1 1 1 1 1 1 1 1 1 1 1 1 1 1 1 1 1 1 1 1 1 1-1         
-1 1 1 1 1 1 1 1 1 1 1 1 1 1 1 1 1 1 1 1 1 1 1 1 1 1 1 1 1 1-1         
-1 1 1 1 1 1 1 1 1 1 1 1 1 1 1 1 1 1 1 1 1 1 1 1 1 1 1 1 1 1-1         
-1 1 1 1 1 1 1 1 1 1 1 1 1 1 1 1 1 1 1 1 1 1 1 1 1 1 1 1 1 1-1         
-1 1 1 1 1 1 1 1 1 1 1 1 1 1 1 1 1 1 1 1 1 1 1 1 1 1 1 1 1 1-1         
-1 1 1 1 1 1 1 1 1 1 1 1 1 1 1 1 1 1 1 1 1 1 1 1 1 1 1 1 1 1-1         
-1 1 1 1 1 1 1 1 1 1 1 1 1 1 1 1 1 1 1 1 1 1 1 1 1 1 1 1 1 1-1         
-1-1-1-1-1-1-1-1-1-1-1-1-1-1-1-1-1-1-1-1-1-1-1-1-1-1-1-1-1-1-1
    999.99
         1        0.(4x,10f16.0)                 0    HEAD-1
   1      1355536.        1350956.        1346399.        1341892.        1337467.        1333162.        1329020.        1325090.        1321425.        1318083.
          1315123.        1312602.        1310575.        1309090.        1308184.        1307879.        1308184.        1309090.        1310575.        1312602.    
          1315123.        1318083.        1321425.        1325090.        1329020.        1333162.        1337467.        1341892.        1346399.        1350956.    
          1355536.    
   2      1350956.        1346049.        1341142.        1336264.        1331448.        1326735.        1322174.        1317819.        1313734.        1309985.    
          1306645.        1303787.        1301478.        1299780.        1298741.        1298391.        1298741.        1299780.        1301478.        1303787.    
          1306645.        1309985.        1313734.        1317819.        1322174.        1326735.        1331448.        1336264.        1341142.        1346049.    
          1350956.    
   3      1346399.        1341142.        1335858.        1330575.        1325327.        1320159.        1315123.        1310281.        1305706.        1301478.    
          1297686.        1294420.        1291768.        1289809.        1288607.        1288201.        1288607.        1289809.        1291768.        1294420.    
          1297686.        1301478.        1305706.        1310281.        1315123.        1320159.        1325327.        1330575.        1335858.        1341142.    
          1346399.    
   4      1341892.        1336264.        1330575.        1324852.        1319129.        1313452.        1307879.        1302477.        1297331.        1292536.    
          1288201.        1284438.        1281363.        1279078.        1277670.        1277194.        1277670.        1279078.        1281363.        1284438.    
          1288201.        1292536.        1297331.        1302477.        1307879.        1313452.        1319129.        1324852.        1330575.        1336264.    
          1341892.    
   5      1337467.        1331448.        1325327.        1319129.        1312887.        1306645.        1300465.        1294420.        1288607.        1283137.    
          1278143.        1273768.        1270162.        1267466.        1265795.        1265229.        1265795.        1267466.        1270162.        1273768.    
          1278143.        1283137.        1288607.        1294420.        1300465.        1306645.        1312887.        1319129.        1325327.        1331448.    
          1337467.    
   6      1333162.        1326735.        1320159.        1313452.        1306645.        1299780.        1292917.        1286136.        1279541.        1273264.    
          1267466.        1262328.        1258048.        1254820.        1252807.        1252123.        1252807.        1254820.        1258048.        1262328.    
          1267466.        1273264.        1279541.        1286136.        1292917.        1299780.        1306645.        1313452.        1320159.        1326735.    
          1333162.    
   7      1329020.        1322174.        1315123.        1307879.        1300465.        1292917.        1285293.        1277670.        1270162.        1262918.    
          1256130.        1250029.        1244879.        1240949.        1238479.        1237635.        1238479.        1240949.        1244879.        1250029.    
          1256130.        1262918.        1270162.        1277670.        1285293.        1292917.        1300465.        1307879.        1315123.        1322174.    
          1329020.    
   8      1325090.        1317819.        1310281.        1302477.        1294420.        1286136.        1277670.        1269096.        1260526.        1252123.    
          1244111.        1236781.        1230485.        1225607.        1222505.        1221439.        1222505.        1225607.        1230485.        1236781.    
          1244111.        1252123.        1260526.        1269096.        1277670.        1286136.        1294420.        1302477.        1310281.        1317819.    
          1325090.    
   9      1321425.        1313734.        1305706.        1297331.        1288607.        1279541.        1270162.        1260526.        1250734.        1240949.    
          1231421.        1222505.        1214671.        1208472.        1204466.        1203077.        1204466.        1208472.        1214671.        1222505.    
          1231421.        1240949.        1250734.        1260526.        1270162.        1279541.        1288607.        1297331.        1305706.        1313734.    
          1321425.    
  10      1318083.        1309985.        1301478.        1292536.        1283137.        1273264.        1262918.        1252123.        1240949.        1229537.    
          1218138.        1207163.        1197222.        1189124.        1183764.        1181880.        1183764.        1189124.        1197222.        1207163.    
          1218138.        1229537.        1240949.        1252123.        1262918.        1273264.        1283137.        1292536.        1301478.        1309985.    
          1318083.    
  11      1315123.        1306645.        1297686.        1288201.        1278143.        1267466.        1256130.        1244111.        1231421.        1218138.    
          1204466.        1190822.        1177950.        1167013.        1159505.        1156809.        1159505.        1167013.        1177950.        1190822.    
          1204466.        1218138.        1231421.        1244111.        1256130.        1267466.        1278143.        1288201.        1297686.        1306645.    
          1315123.    
  12      1312602.        1303787.        1294420.        1284438.        1273768.        1262328.        1250029.        1236781.        1222505.        1207163.    
          1190822.        1173782.        1156809.        1141467.        1130293.        1126124.        1130293.        1141467.        1156809.        1173782.    
          1190822.        1207163.        1222505.        1236781.        1250029.        1262328.        1273768.        1284438.        1294420.        1303787.    
          1312602.    
  13      1310575.        1301478.        1291768.        1281363.        1270162.        1258048.        1244879.        1230485.        1214671.        1197222.    
          1177950.        1156809.        1134223.        1111848.        1093809.        1086565.        1093809.        1111848.        1134223.        1156809.    
          1177950.        1197222.        1214671.        1230485.        1244879.        1258048.        1270162.        1281363.        1291768.        1301478.    
          1310575.    
  14      1309090.        1299780.        1289809.        1279078.        1267466.        1254820.        1240949.        1225607.        1208472.        1189124.    
          1167013.        1141467.        1111848.        1078467.        1046152.        1030810.        1046152.        1078467.        1111848.        1141467.    
          1167013.        1189124.        1208472.        1225607.        1240949.        1254820.        1267466.        1279078.        1289809.        1299780.    
          1309090.    
  15      1308184.        1298741.        1288607.        1277670.        1265795.        1252807.        1238479.        1222505.        1204466.        1183764.    
          1159505.        1130293.        1093809.        1046152.        983152.7        935495.4        983152.7        1046152.        1093809.        1130293.    
          1159505.        1183764.        1204466.        1222505.        1238479.        1252807.        1265795.        1277670.        1288607.        1298741.    
          1308184.    
  16      1307879.        1298391.        1288201.        1277194.        1265229.        1252123.        1237635.        1221439.        1203077.        1181880.    
          1156809.        1126124.        1086565.        1030810.        935495.4        100.0000        935495.4        1030810.        1086565.        1126124.    
          1156809.        1181880.        1203077.        1221439.        1237635.        1252123.        1265229.        1277194.        1288201.        1298391.    
          1307879.    
  17      1308184.        1298741.        1288607.        1277670.        1265795.        1252807.        1238479.        1222505.        1204466.        1183764.    
          1159505.        1130293.        1093809.        1046152.        983152.7        935495.4        983152.7        1046152.        1093809.        1130293.    
          1159505.        1183764.        1204466.        1222505.        1238479.        1252807.        1265795.        1277670.        1288607.        1298741.    
          1308184.    
  18      1309090.        1299780.        1289809.        1279078.        1267466.        1254820.        1240949.        1225607.        1208472.        1189124.    
          1167013.        1141467.        1111848.        1078467.        1046152.        1030810.        1046152.        1078467.        1111848.        1141467.    
          1167013.        1189124.        1208472.        1225607.        1240949.        1254820.        1267466.        1279078.        1289809.        1299780.    
          1309090.    
  19      1310575.        1301478.        1291768.        1281363.        1270162.        1258048.        1244879.        1230485.        1214671.        1197222.    
          1177950.        1156809.        1134223.        1111848.        1093809.        1086565.        1093809.        1111848.        1134223.        1156809.    
          1177950.        1197222.        1214671.        1230485.        1244879.        1258048.        1270162.        1281363.        1291768.        1301478.    
          1310575.    
  20      1312602.        1303787.        1294420.        1284438.        1273768.        1262328.        1250029.        1236781.        1222505.        1207163.    
          1190822.        1173782.        1156809.        1141467.        1130293.        1126124.        1130293.        1141467.        1156809.        1173782.    
          1190822.        1207163.        1222505.        1236781.        1250029.        1262328.        1273768.        1284438.        1294420.        1303787.    
          1312602.    
  21      1315123.        1306645.        1297686.        1288201.        1278143.        1267466.        1256130.        1244111.        1231421.        1218138.    
          1204466.        1190822.        1177950.        1167013.        1159505.        1156809.        1159505.        1167013.        1177950.        1190822.    
          1204466.        1218138.        1231421.        1244111.        1256130.        1267466.        1278143.        1288201.        1297686.        1306645.    
          1315123.    
  22      1318083.        1309985.        1301478.        1292536.        1283137.        1273264.        1262918.        1252123.        1240949.        1229537.    
          1218138.        1207163.        1197222.        1189124.        1183764.        1181880.        1183764.        1189124.        1197222.        1207163.    
          1218138.        1229537.        1240949.        1252123.        1262918.        1273264.        1283137.        1292536.        1301478.        1309985.    
          1318083.    
  23      1321425.        1313734.        1305706.        1297331.        1288607.        1279541.        1270162.        1260526.        1250734.        1240949.    
          1231421.        1222505.        1214671.        1208472.        1204466.        1203077.        1204466.        1208472.        1214671.        1222505.    
          1231421.        1240949.        1250734.        1260526.        1270162.        1279541.        1288607.        1297331.        1305706.        1313734.    
          1321425.    
  24      1325090.        1317819.        1310281.        1302477.        1294420.        1286136.        1277670.        1269096.        1260526.        1252123.    
          1244111.        1236781.        1230485.        1225607.        1222505.        1221439.        1222505.        1225607.        1230485.        1236781.    
          1244111.        1252123.        1260526.        1269096.        1277670.        1286136.        1294420.        1302477.        1310281.        1317819.    
          1325090.    
  25      1329020.        1322174.        1315123.        1307879.        1300465.        1292917.        1285293.        1277670.        1270162.        1262918.    
          1256130.        1250029.        1244879.        1240949.        1238479.        1237635.        1238479.        1240949.        1244879.        1250029.    
          1256130.        1262918.        1270162.        1277670.        1285293.        1292917.        1300465.        1307879.        1315123.        1322174.    
          1329020.    
  26      1333162.        1326735.        1320159.        1313452.        1306645.        1299780.        1292917.        1286136.        1279541.        1273264.    
          1267466.        1262328.        1258048.        1254820.        1252807.        1252123.        1252807.        1254820.        1258048.        1262328.    
          1267466.        1273264.        1279541.        1286136.        1292917.        1299780.        1306645.        1313452.        1320159.        1326735.    
          1333162.    
  27      1337467.        1331448.        1325327.        1319129.        1312887.        1306645.        1300465.        1294420.        1288607.        1283137.    
          1278143.        1273768.        1270162.        1267466.        1265795.        1265229.        1265795.        1267466.        1270162.        1273768.    
          1278143.        1283137.        1288607.        1294420.        1300465.        1306645.        1312887.        1319129.        1325327.        1331448.    
          1337467.    
  28      1341892.        1336264.        1330575.        1324852.        1319129.        1313452.        1307879.        1302477.        1297331.        1292536.    
          1288201.        1284438.        1281363.        1279078.        1277670.        1277194.        1277670.        1279078.        1281363.        1284438.    
          1288201.        1292536.        1297331.        1302477.        1307879.        1313452.        1319129.        1324852.        1330575.        1336264.    
          1341892.    
  29      1346399.        1341142.        1335858.        1330575.        1325327.        1320159.        1315123.        1310281.        1305706.        1301478.    
          1297686.        1294420.        1291768.        1289809.        1288607.        1288201.        1288607.        1289809.        1291768.        1294420.    
          1297686.        1301478.        1305706.        1310281.        1315123.        1320159.        1325327.        1330575.        1335858.        1341142.    
          1346399.    
  30      1350956.        1346049.        1341142.        1336264.        1331448.        1326735.        1322174.        1317819.        1313734.        1309985.    
          1306645.        1303787.        1301478.        1299780.        1298741.        1298391.        1298741.        1299780.        1301478.        1303787.    
          1306645.        1309985.        1313734.        1317819.        1322174.        1326735.        1331448.        1336264.        1341142.        1346049.    
          1350956.    
  31      1355536.        1350956.        1346399.        1341892.        1337467.        1333162.        1329020.        1325090.        1321425.        1318083.    
          1315123.        1312602.        1310575.        1309090.        1308184.        1307879.        1308184.        1309090.        1310575.        1312602.    
          1315123.        1318083.        1321425.        1325090.        1329020.        1333162.        1337467.        1341892.        1346399.        1350956.    
          1355536.    
     912.5         1        1.                        PERLEN,NSTP,TSMULT
    2737.5         1        1.                        PERLEN,NSTP,TSMULT
