# MODFLOW-USG Layer Property Flow (LPF) Package
 50 -1.000000e+30 0 0      CONSTANTCV NOVFC
 4 4 4 4 4 4 4 4 4 4 4 4 4 4 4 4 4 4 4 4 4 4 4 4 4 4 4 4 4 4 4 4 4 4 4 4 4 4 4 4 4 4 4 4 4 4 4 4 4 4
 4 4 4 4 4 4 4 4 4 4 4 4 4 4 4 4 4 4 4 4 4 4 4 4 4 4 4 4 4 4 4 4 4 4 4 4 4 4 4 4 4 4 4 4 4 4 4 4 4 4
 4 4 4 4 4 4 4 4 4 4 4 4 4 4 4 4 4 4 4 4
 0 0 0 0 0 0 0 0 0 0 0 0 0 0 0 0 0 0 0 0 0 0 0 0 0 0 0 0 0 0 0 0 0 0 0 0 0 0 0 0 0 0 0 0 0 0 0 0 0 0
 0 0 0 0 0 0 0 0 0 0 0 0 0 0 0 0 0 0 0 0 0 0 0 0 0 0 0 0 0 0 0 0 0 0 0 0 0 0 0 0 0 0 0 0 0 0 0 0 0 0
 0 0 0 0 0 0 0 0 0 0 0 0 0 0 0 0 0 0 0 0
 1.000000e+00
 1.000000e+00
 1.000000e+00
 1.000000e+00
 1.000000e+00
 1.000000e+00
 1.000000e+00
 1.000000e+00
 1.000000e+00
 1.000000e+00
 1.000000e+00
 1.000000e+00
 1.000000e+00
 1.000000e+00
 1.000000e+00
 1.000000e+00
 1.000000e+00
 1.000000e+00
 1.000000e+00
 1.000000e+00 1.000000e+00
 1.000000e+00
 1.000000e+00
 1.000000e+00
 1.000000e+00
 1.000000e+00
 1.000000e+00
 1.000000e+00
 1.000000e+00
 1.000000e+00
 1.000000e+00
 1.000000e+00
 1.000000e+00
 1.000000e+00
 1.000000e+00
 1.000000e+00
 1.000000e+00
 1.000000e+00
 1.000000e+00
 1.000000e+00 1.000000e+00
 1.000000e+00
 1.000000e+00
 1.000000e+00
 1.000000e+00
 1.000000e+00
 1.000000e+00
 1.000000e+00
 1.000000e+00
 1.000000e+00
 1.000000e+00
 1.000000e+00
 1.000000e+00
 1.000000e+00
 1.000000e+00
 1.000000e+00
 1.000000e+00
 1.000000e+00
 1.000000e+00
 1.000000e+00 1.000000e+00
 1.000000e+00
 1.000000e+00
 1.000000e+00
 1.000000e+00
 1.000000e+00
 1.000000e+00
 1.000000e+00
 1.000000e+00
 1.000000e+00
 1.000000e+00
 1.000000e+00
 1.000000e+00
 1.000000e+00
 1.000000e+00
 1.000000e+00
 1.000000e+00
 1.000000e+00
 1.000000e+00
 1.000000e+00 1.000000e+00
 1.000000e+00
 1.000000e+00
 1.000000e+00
 1.000000e+00
 1.000000e+00
 1.000000e+00
 1.000000e+00
 1.000000e+00
 1.000000e+00
 1.000000e+00
 1.000000e+00
 1.000000e+00
 1.000000e+00
 1.000000e+00
 1.000000e+00
 1.000000e+00
 1.000000e+00
 1.000000e+00
 1.000000e+00 1.000000e+00
 1.000000e+00
 1.000000e+00
 1.000000e+00
 1.000000e+00
 1.000000e+00
 1.000000e+00
 1.000000e+00
 1.000000e+00
 1.000000e+00
 1.000000e+00
 1.000000e+00
 1.000000e+00
 1.000000e+00
 1.000000e+00
 1.000000e+00
 1.000000e+00
 1.000000e+00
 1.000000e+00
 1.000000e+00
 0 0 0 0 0 0 0 0 0 0 0 0 0 0 0 0 0 0 0 0 0 0 0 0 0 0 0 0 0 0 0 0 0 0 0 0 0 0 0 0 0 0 0 0 0 0 0 0 0 0
 0 0 0 0 0 0 0 0 0 0 0 0 0 0 0 0 0 0 0 0 0 0 0 0 0 0 0 0 0 0 0 0 0 0 0 0 0 0 0 0 0 0 0 0 0 0 0 0 0 0
 0 0 0 0 0 0 0 0 0 0 0 0 0 0 0 0 0 0 0 0
 0 0 0 0 0 0 0 0 0 0 0 0 0 0 0 0 0 0 0 0 0 0 0 0 0 0 0 0 0 0 0 0 0 0 0 0 0 0 0 0 0 0 0 0 0 0 0 0 0 0
 0 0 0 0 0 0 0 0 0 0 0 0 0 0 0 0 0 0 0 0 0 0 0 0 0 0 0 0 0 0 0 0 0 0 0 0 0 0 0 0 0 0 0 0 0 0 0 0 0 0
 0 0 0 0 0 0 0 0 0 0 0 0 0 0 0 0 0 0 0 0
INTERNAL  1.000000e+00  (FREE)  -1  Kx Layer 1
 1.000000e-04
INTERNAL  1.000000e+00  (FREE)  -1  Kz Layer 1
 1.000000e-04
INTERNAL  1.000000e+00  (FREE)  -1  Ss Layer 1
 1.000000e-10
INTERNAL  1.000000e+00  (FREE)  -1  Sy Layer 1
 1.000000e-10
INTERNAL  1.000000e+00  (FREE)  -1  Kx Layer 2
 1.000000e-04
INTERNAL  1.000000e+00  (FREE)  -1  Kz Layer 2
 1.000000e-04
INTERNAL  1.000000e+00  (FREE)  -1  Ss Layer 2
 1.000000e-10
INTERNAL  1.000000e+00  (FREE)  -1  Sy Layer 2
 1.000000e-10
INTERNAL  1.000000e+00  (FREE)  -1  Kx Layer 3
 1.000000e-04
INTERNAL  1.000000e+00  (FREE)  -1  Kz Layer 3
 1.000000e-04
INTERNAL  1.000000e+00  (FREE)  -1  Ss Layer 3
 1.000000e-10
INTERNAL  1.000000e+00  (FREE)  -1  Sy Layer 3
 1.000000e-10
INTERNAL  1.000000e+00  (FREE)  -1  Kx Layer 4
 1.000000e-04
INTERNAL  1.000000e+00  (FREE)  -1  Kz Layer 4
 1.000000e-04
INTERNAL  1.000000e+00  (FREE)  -1  Ss Layer 4
 1.000000e-10
INTERNAL  1.000000e+00  (FREE)  -1  Sy Layer 4
 1.000000e-10
INTERNAL  1.000000e+00  (FREE)  -1  Kx Layer 5
 1.000000e-04
INTERNAL  1.000000e+00  (FREE)  -1  Kz Layer 5
 1.000000e-04
INTERNAL  1.000000e+00  (FREE)  -1  Ss Layer 5
 1.000000e-10
INTERNAL  1.000000e+00  (FREE)  -1  Sy Layer 5
 1.000000e-10
INTERNAL  1.000000e+00  (FREE)  -1  Kx Layer 6
 1.000000e-04
INTERNAL  1.000000e+00  (FREE)  -1  Kz Layer 6
 1.000000e-04
INTERNAL  1.000000e+00  (FREE)  -1  Ss Layer 6
 1.000000e-10
INTERNAL  1.000000e+00  (FREE)  -1  Sy Layer 6
 1.000000e-10
INTERNAL  1.000000e+00  (FREE)  -1  Kx Layer 7
 1.000000e-04
INTERNAL  1.000000e+00  (FREE)  -1  Kz Layer 7
 1.000000e-04
INTERNAL  1.000000e+00  (FREE)  -1  Ss Layer 7
 1.000000e-10
INTERNAL  1.000000e+00  (FREE)  -1  Sy Layer 7
 1.000000e-10
INTERNAL  1.000000e+00  (FREE)  -1  Kx Layer 8
 1.000000e-04
INTERNAL  1.000000e+00  (FREE)  -1  Kz Layer 8
 1.000000e-04
INTERNAL  1.000000e+00  (FREE)  -1  Ss Layer 8
 1.000000e-10
INTERNAL  1.000000e+00  (FREE)  -1  Sy Layer 8
 1.000000e-10
INTERNAL  1.000000e+00  (FREE)  -1  Kx Layer 9
 1.000000e-04
INTERNAL  1.000000e+00  (FREE)  -1  Kz Layer 9
 1.000000e-04
INTERNAL  1.000000e+00  (FREE)  -1  Ss Layer 9
 1.000000e-10
INTERNAL  1.000000e+00  (FREE)  -1  Sy Layer 9
 1.000000e-10
INTERNAL  1.000000e+00  (FREE)  -1  Kx Layer 10
 1.000000e-04
INTERNAL  1.000000e+00  (FREE)  -1  Kz Layer 10
 1.000000e-04
INTERNAL  1.000000e+00  (FREE)  -1  Ss Layer 10
 1.000000e-10
INTERNAL  1.000000e+00  (FREE)  -1  Sy Layer 10
 1.000000e-10
INTERNAL  1.000000e+00  (FREE)  -1  Kx Layer 11
 1.000000e-04
INTERNAL  1.000000e+00  (FREE)  -1  Kz Layer 11
 1.000000e-04
INTERNAL  1.000000e+00  (FREE)  -1  Ss Layer 11
 1.000000e-10
INTERNAL  1.000000e+00  (FREE)  -1  Sy Layer 11
 1.000000e-10
INTERNAL  1.000000e+00  (FREE)  -1  Kx Layer 12
 1.000000e-04
INTERNAL  1.000000e+00  (FREE)  -1  Kz Layer 12
 1.000000e-04
INTERNAL  1.000000e+00  (FREE)  -1  Ss Layer 12
 1.000000e-10
INTERNAL  1.000000e+00  (FREE)  -1  Sy Layer 12
 1.000000e-10
INTERNAL  1.000000e+00  (FREE)  -1  Kx Layer 13
 1.000000e-04
INTERNAL  1.000000e+00  (FREE)  -1  Kz Layer 13
 1.000000e-04
INTERNAL  1.000000e+00  (FREE)  -1  Ss Layer 13
 1.000000e-10
INTERNAL  1.000000e+00  (FREE)  -1  Sy Layer 13
 1.000000e-10
INTERNAL  1.000000e+00  (FREE)  -1  Kx Layer 14
 1.000000e-04
INTERNAL  1.000000e+00  (FREE)  -1  Kz Layer 14
 1.000000e-04
INTERNAL  1.000000e+00  (FREE)  -1  Ss Layer 14
 1.000000e-10
INTERNAL  1.000000e+00  (FREE)  -1  Sy Layer 14
 1.000000e-10
INTERNAL  1.000000e+00  (FREE)  -1  Kx Layer 15
 1.000000e-04
INTERNAL  1.000000e+00  (FREE)  -1  Kz Layer 15
 1.000000e-04
INTERNAL  1.000000e+00  (FREE)  -1  Ss Layer 15
 1.000000e-10
INTERNAL  1.000000e+00  (FREE)  -1  Sy Layer 15
 1.000000e-10
INTERNAL  1.000000e+00  (FREE)  -1  Kx Layer 16
 1.000000e-04
INTERNAL  1.000000e+00  (FREE)  -1  Kz Layer 16
 1.000000e-04
INTERNAL  1.000000e+00  (FREE)  -1  Ss Layer 16
 1.000000e-10
INTERNAL  1.000000e+00  (FREE)  -1  Sy Layer 16
 1.000000e-10
INTERNAL  1.000000e+00  (FREE)  -1  Kx Layer 17
 1.000000e-04
INTERNAL  1.000000e+00  (FREE)  -1  Kz Layer 17
 1.000000e-04
INTERNAL  1.000000e+00  (FREE)  -1  Ss Layer 17
 1.000000e-10
INTERNAL  1.000000e+00  (FREE)  -1  Sy Layer 17
 1.000000e-10
INTERNAL  1.000000e+00  (FREE)  -1  Kx Layer 18
 1.000000e-04
INTERNAL  1.000000e+00  (FREE)  -1  Kz Layer 18
 1.000000e-04
INTERNAL  1.000000e+00  (FREE)  -1  Ss Layer 18
 1.000000e-10
INTERNAL  1.000000e+00  (FREE)  -1  Sy Layer 18
 1.000000e-10
INTERNAL  1.000000e+00  (FREE)  -1  Kx Layer 19
 1.000000e-04
INTERNAL  1.000000e+00  (FREE)  -1  Kz Layer 19
 1.000000e-04
INTERNAL  1.000000e+00  (FREE)  -1  Ss Layer 19
 1.000000e-10
INTERNAL  1.000000e+00  (FREE)  -1  Sy Layer 19
 1.000000e-10
INTERNAL  1.000000e+00  (FREE)  -1  Kx Layer 20
 1.000000e-04
INTERNAL  1.000000e+00  (FREE)  -1  Kz Layer 20
 1.000000e-04
INTERNAL  1.000000e+00  (FREE)  -1  Ss Layer 20
 1.000000e-10
INTERNAL  1.000000e+00  (FREE)  -1  Sy Layer 20
 1.000000e-10
INTERNAL  1.000000e+00  (FREE)  -1  Kx Layer 21
 1.000000e-04
INTERNAL  1.000000e+00  (FREE)  -1  Kz Layer 21
 1.000000e-04
INTERNAL  1.000000e+00  (FREE)  -1  Ss Layer 21
 1.000000e-10
INTERNAL  1.000000e+00  (FREE)  -1  Sy Layer 21
 1.000000e-10
INTERNAL  1.000000e+00  (FREE)  -1  Kx Layer 22
 1.000000e-04
INTERNAL  1.000000e+00  (FREE)  -1  Kz Layer 22
 1.000000e-04
INTERNAL  1.000000e+00  (FREE)  -1  Ss Layer 22
 1.000000e-10
INTERNAL  1.000000e+00  (FREE)  -1  Sy Layer 22
 1.000000e-10
INTERNAL  1.000000e+00  (FREE)  -1  Kx Layer 23
 1.000000e-04
INTERNAL  1.000000e+00  (FREE)  -1  Kz Layer 23
 1.000000e-04
INTERNAL  1.000000e+00  (FREE)  -1  Ss Layer 23
 1.000000e-10
INTERNAL  1.000000e+00  (FREE)  -1  Sy Layer 23
 1.000000e-10
INTERNAL  1.000000e+00  (FREE)  -1  Kx Layer 24
 1.000000e-04
INTERNAL  1.000000e+00  (FREE)  -1  Kz Layer 24
 1.000000e-04
INTERNAL  1.000000e+00  (FREE)  -1  Ss Layer 24
 1.000000e-10
INTERNAL  1.000000e+00  (FREE)  -1  Sy Layer 24
 1.000000e-10
INTERNAL  1.000000e+00  (FREE)  -1  Kx Layer 25
 1.000000e-04
INTERNAL  1.000000e+00  (FREE)  -1  Kz Layer 25
 1.000000e-04
INTERNAL  1.000000e+00  (FREE)  -1  Ss Layer 25
 1.000000e-10
INTERNAL  1.000000e+00  (FREE)  -1  Sy Layer 25
 1.000000e-10
INTERNAL  1.000000e+00  (FREE)  -1  Kx Layer 26
 1.000000e-04
INTERNAL  1.000000e+00  (FREE)  -1  Kz Layer 26
 1.000000e-04
INTERNAL  1.000000e+00  (FREE)  -1  Ss Layer 26
 1.000000e-10
INTERNAL  1.000000e+00  (FREE)  -1  Sy Layer 26
 1.000000e-10
INTERNAL  1.000000e+00  (FREE)  -1  Kx Layer 27
 1.000000e-04
INTERNAL  1.000000e+00  (FREE)  -1  Kz Layer 27
 1.000000e-04
INTERNAL  1.000000e+00  (FREE)  -1  Ss Layer 27
 1.000000e-10
INTERNAL  1.000000e+00  (FREE)  -1  Sy Layer 27
 1.000000e-10
INTERNAL  1.000000e+00  (FREE)  -1  Kx Layer 28
 1.000000e-04
INTERNAL  1.000000e+00  (FREE)  -1  Kz Layer 28
 1.000000e-04
INTERNAL  1.000000e+00  (FREE)  -1  Ss Layer 28
 1.000000e-10
INTERNAL  1.000000e+00  (FREE)  -1  Sy Layer 28
 1.000000e-10
INTERNAL  1.000000e+00  (FREE)  -1  Kx Layer 29
 1.000000e-04
INTERNAL  1.000000e+00  (FREE)  -1  Kz Layer 29
 1.000000e-04
INTERNAL  1.000000e+00  (FREE)  -1  Ss Layer 29
 1.000000e-10
INTERNAL  1.000000e+00  (FREE)  -1  Sy Layer 29
 1.000000e-10
INTERNAL  1.000000e+00  (FREE)  -1  Kx Layer 30
 1.000000e-04
INTERNAL  1.000000e+00  (FREE)  -1  Kz Layer 30
 1.000000e-04
INTERNAL  1.000000e+00  (FREE)  -1  Ss Layer 30
 1.000000e-10
INTERNAL  1.000000e+00  (FREE)  -1  Sy Layer 30
 1.000000e-10
INTERNAL  1.000000e+00  (FREE)  -1  Kx Layer 31
 1.000000e-04
INTERNAL  1.000000e+00  (FREE)  -1  Kz Layer 31
 1.000000e-04
INTERNAL  1.000000e+00  (FREE)  -1  Ss Layer 31
 1.000000e-10
INTERNAL  1.000000e+00  (FREE)  -1  Sy Layer 31
 1.000000e-10
INTERNAL  1.000000e+00  (FREE)  -1  Kx Layer 32
 1.000000e-04
INTERNAL  1.000000e+00  (FREE)  -1  Kz Layer 32
 1.000000e-04
INTERNAL  1.000000e+00  (FREE)  -1  Ss Layer 32
 1.000000e-10
INTERNAL  1.000000e+00  (FREE)  -1  Sy Layer 32
 1.000000e-10
INTERNAL  1.000000e+00  (FREE)  -1  Kx Layer 33
 1.000000e-04
INTERNAL  1.000000e+00  (FREE)  -1  Kz Layer 33
 1.000000e-04
INTERNAL  1.000000e+00  (FREE)  -1  Ss Layer 33
 1.000000e-10
INTERNAL  1.000000e+00  (FREE)  -1  Sy Layer 33
 1.000000e-10
INTERNAL  1.000000e+00  (FREE)  -1  Kx Layer 34
 1.000000e-04
INTERNAL  1.000000e+00  (FREE)  -1  Kz Layer 34
 1.000000e-04
INTERNAL  1.000000e+00  (FREE)  -1  Ss Layer 34
 1.000000e-10
INTERNAL  1.000000e+00  (FREE)  -1  Sy Layer 34
 1.000000e-10
INTERNAL  1.000000e+00  (FREE)  -1  Kx Layer 35
 1.000000e-04
INTERNAL  1.000000e+00  (FREE)  -1  Kz Layer 35
 1.000000e-04
INTERNAL  1.000000e+00  (FREE)  -1  Ss Layer 35
 1.000000e-10
INTERNAL  1.000000e+00  (FREE)  -1  Sy Layer 35
 1.000000e-10
INTERNAL  1.000000e+00  (FREE)  -1  Kx Layer 36
 1.000000e-04
INTERNAL  1.000000e+00  (FREE)  -1  Kz Layer 36
 1.000000e-04
INTERNAL  1.000000e+00  (FREE)  -1  Ss Layer 36
 1.000000e-10
INTERNAL  1.000000e+00  (FREE)  -1  Sy Layer 36
 1.000000e-10
INTERNAL  1.000000e+00  (FREE)  -1  Kx Layer 37
 1.000000e-04
INTERNAL  1.000000e+00  (FREE)  -1  Kz Layer 37
 1.000000e-04
INTERNAL  1.000000e+00  (FREE)  -1  Ss Layer 37
 1.000000e-10
INTERNAL  1.000000e+00  (FREE)  -1  Sy Layer 37
 1.000000e-10
INTERNAL  1.000000e+00  (FREE)  -1  Kx Layer 38
 1.000000e-04
INTERNAL  1.000000e+00  (FREE)  -1  Kz Layer 38
 1.000000e-04
INTERNAL  1.000000e+00  (FREE)  -1  Ss Layer 38
 1.000000e-10
INTERNAL  1.000000e+00  (FREE)  -1  Sy Layer 38
 1.000000e-10
INTERNAL  1.000000e+00  (FREE)  -1  Kx Layer 39
 1.000000e-04
INTERNAL  1.000000e+00  (FREE)  -1  Kz Layer 39
 1.000000e-04
INTERNAL  1.000000e+00  (FREE)  -1  Ss Layer 39
 1.000000e-10
INTERNAL  1.000000e+00  (FREE)  -1  Sy Layer 39
 1.000000e-10
INTERNAL  1.000000e+00  (FREE)  -1  Kx Layer 40
 1.000000e-04
INTERNAL  1.000000e+00  (FREE)  -1  Kz Layer 40
 1.000000e-04
INTERNAL  1.000000e+00  (FREE)  -1  Ss Layer 40
 1.000000e-10
INTERNAL  1.000000e+00  (FREE)  -1  Sy Layer 40
 1.000000e-10
INTERNAL  1.000000e+00  (FREE)  -1  Kx Layer 41
 1.000000e-04
INTERNAL  1.000000e+00  (FREE)  -1  Kz Layer 41
 1.000000e-04
INTERNAL  1.000000e+00  (FREE)  -1  Ss Layer 41
 1.000000e-10
INTERNAL  1.000000e+00  (FREE)  -1  Sy Layer 41
 1.000000e-10
INTERNAL  1.000000e+00  (FREE)  -1  Kx Layer 42
 1.000000e-04
INTERNAL  1.000000e+00  (FREE)  -1  Kz Layer 42
 1.000000e-04
INTERNAL  1.000000e+00  (FREE)  -1  Ss Layer 42
 1.000000e-10
INTERNAL  1.000000e+00  (FREE)  -1  Sy Layer 42
 1.000000e-10
INTERNAL  1.000000e+00  (FREE)  -1  Kx Layer 43
 1.000000e-04
INTERNAL  1.000000e+00  (FREE)  -1  Kz Layer 43
 1.000000e-04
INTERNAL  1.000000e+00  (FREE)  -1  Ss Layer 43
 1.000000e-10
INTERNAL  1.000000e+00  (FREE)  -1  Sy Layer 43
 1.000000e-10
INTERNAL  1.000000e+00  (FREE)  -1  Kx Layer 44
 1.000000e-04
INTERNAL  1.000000e+00  (FREE)  -1  Kz Layer 44
 1.000000e-04
INTERNAL  1.000000e+00  (FREE)  -1  Ss Layer 44
 1.000000e-10
INTERNAL  1.000000e+00  (FREE)  -1  Sy Layer 44
 1.000000e-10
INTERNAL  1.000000e+00  (FREE)  -1  Kx Layer 45
 1.000000e-04
INTERNAL  1.000000e+00  (FREE)  -1  Kz Layer 45
 1.000000e-04
INTERNAL  1.000000e+00  (FREE)  -1  Ss Layer 45
 1.000000e-10
INTERNAL  1.000000e+00  (FREE)  -1  Sy Layer 45
 1.000000e-10
INTERNAL  1.000000e+00  (FREE)  -1  Kx Layer 46
 1.000000e-04
INTERNAL  1.000000e+00  (FREE)  -1  Kz Layer 46
 1.000000e-04
INTERNAL  1.000000e+00  (FREE)  -1  Ss Layer 46
 1.000000e-10
INTERNAL  1.000000e+00  (FREE)  -1  Sy Layer 46
 1.000000e-10
INTERNAL  1.000000e+00  (FREE)  -1  Kx Layer 47
 1.000000e-04
INTERNAL  1.000000e+00  (FREE)  -1  Kz Layer 47
 1.000000e-04
INTERNAL  1.000000e+00  (FREE)  -1  Ss Layer 47
 1.000000e-10
INTERNAL  1.000000e+00  (FREE)  -1  Sy Layer 47
 1.000000e-10
INTERNAL  1.000000e+00  (FREE)  -1  Kx Layer 48
 1.000000e-04
INTERNAL  1.000000e+00  (FREE)  -1  Kz Layer 48
 1.000000e-04
INTERNAL  1.000000e+00  (FREE)  -1  Ss Layer 48
 1.000000e-10
INTERNAL  1.000000e+00  (FREE)  -1  Sy Layer 48
 1.000000e-10
INTERNAL  1.000000e+00  (FREE)  -1  Kx Layer 49
 1.000000e-04
INTERNAL  1.000000e+00  (FREE)  -1  Kz Layer 49
 1.000000e-04
INTERNAL  1.000000e+00  (FREE)  -1  Ss Layer 49
 1.000000e-10
INTERNAL  1.000000e+00  (FREE)  -1  Sy Layer 49
 1.000000e-10
INTERNAL  1.000000e+00  (FREE)  -1  Kx Layer 50
 1.000000e-04
INTERNAL  1.000000e+00  (FREE)  -1  Kz Layer 50
 1.000000e-04
INTERNAL  1.000000e+00  (FREE)  -1  Ss Layer 50
 1.000000e-10
INTERNAL  1.000000e+00  (FREE)  -1  Sy Layer 50
 1.000000e-10
INTERNAL  1.000000e+00  (FREE)  -1  Kx Layer 51
 1.000000e-04
INTERNAL  1.000000e+00  (FREE)  -1  Kz Layer 51
 1.000000e-04
INTERNAL  1.000000e+00  (FREE)  -1  Ss Layer 51
 1.000000e-10
INTERNAL  1.000000e+00  (FREE)  -1  Sy Layer 51
 1.000000e-10
INTERNAL  1.000000e+00  (FREE)  -1  Kx Layer 52
 1.000000e-04
INTERNAL  1.000000e+00  (FREE)  -1  Kz Layer 52
 1.000000e-04
INTERNAL  1.000000e+00  (FREE)  -1  Ss Layer 52
 1.000000e-10
INTERNAL  1.000000e+00  (FREE)  -1  Sy Layer 52
 1.000000e-10
INTERNAL  1.000000e+00  (FREE)  -1  Kx Layer 53
 1.000000e-04
INTERNAL  1.000000e+00  (FREE)  -1  Kz Layer 53
 1.000000e-04
INTERNAL  1.000000e+00  (FREE)  -1  Ss Layer 53
 1.000000e-10
INTERNAL  1.000000e+00  (FREE)  -1  Sy Layer 53
 1.000000e-10
INTERNAL  1.000000e+00  (FREE)  -1  Kx Layer 54
 1.000000e-04
INTERNAL  1.000000e+00  (FREE)  -1  Kz Layer 54
 1.000000e-04
INTERNAL  1.000000e+00  (FREE)  -1  Ss Layer 54
 1.000000e-10
INTERNAL  1.000000e+00  (FREE)  -1  Sy Layer 54
 1.000000e-10
INTERNAL  1.000000e+00  (FREE)  -1  Kx Layer 55
 1.000000e-04
INTERNAL  1.000000e+00  (FREE)  -1  Kz Layer 55
 1.000000e-04
INTERNAL  1.000000e+00  (FREE)  -1  Ss Layer 55
 1.000000e-10
INTERNAL  1.000000e+00  (FREE)  -1  Sy Layer 55
 1.000000e-10
INTERNAL  1.000000e+00  (FREE)  -1  Kx Layer 56
 1.000000e-04
INTERNAL  1.000000e+00  (FREE)  -1  Kz Layer 56
 1.000000e-04
INTERNAL  1.000000e+00  (FREE)  -1  Ss Layer 56
 1.000000e-10
INTERNAL  1.000000e+00  (FREE)  -1  Sy Layer 56
 1.000000e-10
INTERNAL  1.000000e+00  (FREE)  -1  Kx Layer 57
 1.000000e-04
INTERNAL  1.000000e+00  (FREE)  -1  Kz Layer 57
 1.000000e-04
INTERNAL  1.000000e+00  (FREE)  -1  Ss Layer 57
 1.000000e-10
INTERNAL  1.000000e+00  (FREE)  -1  Sy Layer 57
 1.000000e-10
INTERNAL  1.000000e+00  (FREE)  -1  Kx Layer 58
 1.000000e-04
INTERNAL  1.000000e+00  (FREE)  -1  Kz Layer 58
 1.000000e-04
INTERNAL  1.000000e+00  (FREE)  -1  Ss Layer 58
 1.000000e-10
INTERNAL  1.000000e+00  (FREE)  -1  Sy Layer 58
 1.000000e-10
INTERNAL  1.000000e+00  (FREE)  -1  Kx Layer 59
 1.000000e-04
INTERNAL  1.000000e+00  (FREE)  -1  Kz Layer 59
 1.000000e-04
INTERNAL  1.000000e+00  (FREE)  -1  Ss Layer 59
 1.000000e-10
INTERNAL  1.000000e+00  (FREE)  -1  Sy Layer 59
 1.000000e-10
INTERNAL  1.000000e+00  (FREE)  -1  Kx Layer 60
 1.000000e-04
INTERNAL  1.000000e+00  (FREE)  -1  Kz Layer 60
 1.000000e-04
INTERNAL  1.000000e+00  (FREE)  -1  Ss Layer 60
 1.000000e-10
INTERNAL  1.000000e+00  (FREE)  -1  Sy Layer 60
 1.000000e-10
INTERNAL  1.000000e+00  (FREE)  -1  Kx Layer 61
 1.000000e-04
INTERNAL  1.000000e+00  (FREE)  -1  Kz Layer 61
 1.000000e-04
INTERNAL  1.000000e+00  (FREE)  -1  Ss Layer 61
 1.000000e-10
INTERNAL  1.000000e+00  (FREE)  -1  Sy Layer 61
 1.000000e-10
INTERNAL  1.000000e+00  (FREE)  -1  Kx Layer 62
 1.000000e-04
INTERNAL  1.000000e+00  (FREE)  -1  Kz Layer 62
 1.000000e-04
INTERNAL  1.000000e+00  (FREE)  -1  Ss Layer 62
 1.000000e-10
INTERNAL  1.000000e+00  (FREE)  -1  Sy Layer 62
 1.000000e-10
INTERNAL  1.000000e+00  (FREE)  -1  Kx Layer 63
 1.000000e-04
INTERNAL  1.000000e+00  (FREE)  -1  Kz Layer 63
 1.000000e-04
INTERNAL  1.000000e+00  (FREE)  -1  Ss Layer 63
 1.000000e-10
INTERNAL  1.000000e+00  (FREE)  -1  Sy Layer 63
 1.000000e-10
INTERNAL  1.000000e+00  (FREE)  -1  Kx Layer 64
 1.000000e-04
INTERNAL  1.000000e+00  (FREE)  -1  Kz Layer 64
 1.000000e-04
INTERNAL  1.000000e+00  (FREE)  -1  Ss Layer 64
 1.000000e-10
INTERNAL  1.000000e+00  (FREE)  -1  Sy Layer 64
 1.000000e-10
INTERNAL  1.000000e+00  (FREE)  -1  Kx Layer 65
 1.000000e-04
INTERNAL  1.000000e+00  (FREE)  -1  Kz Layer 65
 1.000000e-04
INTERNAL  1.000000e+00  (FREE)  -1  Ss Layer 65
 1.000000e-10
INTERNAL  1.000000e+00  (FREE)  -1  Sy Layer 65
 1.000000e-10
INTERNAL  1.000000e+00  (FREE)  -1  Kx Layer 66
 1.000000e-04
INTERNAL  1.000000e+00  (FREE)  -1  Kz Layer 66
 1.000000e-04
INTERNAL  1.000000e+00  (FREE)  -1  Ss Layer 66
 1.000000e-10
INTERNAL  1.000000e+00  (FREE)  -1  Sy Layer 66
 1.000000e-10
INTERNAL  1.000000e+00  (FREE)  -1  Kx Layer 67
 1.000000e-04
INTERNAL  1.000000e+00  (FREE)  -1  Kz Layer 67
 1.000000e-04
INTERNAL  1.000000e+00  (FREE)  -1  Ss Layer 67
 1.000000e-10
INTERNAL  1.000000e+00  (FREE)  -1  Sy Layer 67
 1.000000e-10
INTERNAL  1.000000e+00  (FREE)  -1  Kx Layer 68
 1.000000e-04
INTERNAL  1.000000e+00  (FREE)  -1  Kz Layer 68
 1.000000e-04
INTERNAL  1.000000e+00  (FREE)  -1  Ss Layer 68
 1.000000e-10
INTERNAL  1.000000e+00  (FREE)  -1  Sy Layer 68
 1.000000e-10
INTERNAL  1.000000e+00  (FREE)  -1  Kx Layer 69
 1.000000e-04
INTERNAL  1.000000e+00  (FREE)  -1  Kz Layer 69
 1.000000e-04
INTERNAL  1.000000e+00  (FREE)  -1  Ss Layer 69
 1.000000e-10
INTERNAL  1.000000e+00  (FREE)  -1  Sy Layer 69
 1.000000e-10
INTERNAL  1.000000e+00  (FREE)  -1  Kx Layer 70
 1.000000e-04
INTERNAL  1.000000e+00  (FREE)  -1  Kz Layer 70
 1.000000e-04
INTERNAL  1.000000e+00  (FREE)  -1  Ss Layer 70
 1.000000e-10
INTERNAL  1.000000e+00  (FREE)  -1  Sy Layer 70
 1.000000e-10
INTERNAL  1.000000e+00  (FREE)  -1  Kx Layer 71
 1.000000e-04
INTERNAL  1.000000e+00  (FREE)  -1  Kz Layer 71
 1.000000e-04
INTERNAL  1.000000e+00  (FREE)  -1  Ss Layer 71
 1.000000e-10
INTERNAL  1.000000e+00  (FREE)  -1  Sy Layer 71
 1.000000e-10
INTERNAL  1.000000e+00  (FREE)  -1  Kx Layer 72
 1.000000e-04
INTERNAL  1.000000e+00  (FREE)  -1  Kz Layer 72
 1.000000e-04
INTERNAL  1.000000e+00  (FREE)  -1  Ss Layer 72
 1.000000e-10
INTERNAL  1.000000e+00  (FREE)  -1  Sy Layer 72
 1.000000e-10
INTERNAL  1.000000e+00  (FREE)  -1  Kx Layer 73
 1.000000e-04
INTERNAL  1.000000e+00  (FREE)  -1  Kz Layer 73
 1.000000e-04
INTERNAL  1.000000e+00  (FREE)  -1  Ss Layer 73
 1.000000e-10
INTERNAL  1.000000e+00  (FREE)  -1  Sy Layer 73
 1.000000e-10
INTERNAL  1.000000e+00  (FREE)  -1  Kx Layer 74
 1.000000e-04
INTERNAL  1.000000e+00  (FREE)  -1  Kz Layer 74
 1.000000e-04
INTERNAL  1.000000e+00  (FREE)  -1  Ss Layer 74
 1.000000e-10
INTERNAL  1.000000e+00  (FREE)  -1  Sy Layer 74
 1.000000e-10
INTERNAL  1.000000e+00  (FREE)  -1  Kx Layer 75
 1.000000e-04
INTERNAL  1.000000e+00  (FREE)  -1  Kz Layer 75
 1.000000e-04
INTERNAL  1.000000e+00  (FREE)  -1  Ss Layer 75
 1.000000e-10
INTERNAL  1.000000e+00  (FREE)  -1  Sy Layer 75
 1.000000e-10
INTERNAL  1.000000e+00  (FREE)  -1  Kx Layer 76
 1.000000e-04
INTERNAL  1.000000e+00  (FREE)  -1  Kz Layer 76
 1.000000e-04
INTERNAL  1.000000e+00  (FREE)  -1  Ss Layer 76
 1.000000e-10
INTERNAL  1.000000e+00  (FREE)  -1  Sy Layer 76
 1.000000e-10
INTERNAL  1.000000e+00  (FREE)  -1  Kx Layer 77
 1.000000e-04
INTERNAL  1.000000e+00  (FREE)  -1  Kz Layer 77
 1.000000e-04
INTERNAL  1.000000e+00  (FREE)  -1  Ss Layer 77
 1.000000e-10
INTERNAL  1.000000e+00  (FREE)  -1  Sy Layer 77
 1.000000e-10
INTERNAL  1.000000e+00  (FREE)  -1  Kx Layer 78
 1.000000e-04
INTERNAL  1.000000e+00  (FREE)  -1  Kz Layer 78
 1.000000e-04
INTERNAL  1.000000e+00  (FREE)  -1  Ss Layer 78
 1.000000e-10
INTERNAL  1.000000e+00  (FREE)  -1  Sy Layer 78
 1.000000e-10
INTERNAL  1.000000e+00  (FREE)  -1  Kx Layer 79
 1.000000e-04
INTERNAL  1.000000e+00  (FREE)  -1  Kz Layer 79
 1.000000e-04
INTERNAL  1.000000e+00  (FREE)  -1  Ss Layer 79
 1.000000e-10
INTERNAL  1.000000e+00  (FREE)  -1  Sy Layer 79
 1.000000e-10
INTERNAL  1.000000e+00  (FREE)  -1  Kx Layer 80
 1.000000e-04
INTERNAL  1.000000e+00  (FREE)  -1  Kz Layer 80
 1.000000e-04
INTERNAL  1.000000e+00  (FREE)  -1  Ss Layer 80
 1.000000e-10
INTERNAL  1.000000e+00  (FREE)  -1  Sy Layer 80
 1.000000e-10
INTERNAL  1.000000e+00  (FREE)  -1  Kx Layer 81
 1.000000e-04
INTERNAL  1.000000e+00  (FREE)  -1  Kz Layer 81
 1.000000e-04
INTERNAL  1.000000e+00  (FREE)  -1  Ss Layer 81
 1.000000e-10
INTERNAL  1.000000e+00  (FREE)  -1  Sy Layer 81
 1.000000e-10
INTERNAL  1.000000e+00  (FREE)  -1  Kx Layer 82
 1.000000e-04
INTERNAL  1.000000e+00  (FREE)  -1  Kz Layer 82
 1.000000e-04
INTERNAL  1.000000e+00  (FREE)  -1  Ss Layer 82
 1.000000e-10
INTERNAL  1.000000e+00  (FREE)  -1  Sy Layer 82
 1.000000e-10
INTERNAL  1.000000e+00  (FREE)  -1  Kx Layer 83
 1.000000e-04
INTERNAL  1.000000e+00  (FREE)  -1  Kz Layer 83
 1.000000e-04
INTERNAL  1.000000e+00  (FREE)  -1  Ss Layer 83
 1.000000e-10
INTERNAL  1.000000e+00  (FREE)  -1  Sy Layer 83
 1.000000e-10
INTERNAL  1.000000e+00  (FREE)  -1  Kx Layer 84
 1.000000e-04
INTERNAL  1.000000e+00  (FREE)  -1  Kz Layer 84
 1.000000e-04
INTERNAL  1.000000e+00  (FREE)  -1  Ss Layer 84
 1.000000e-10
INTERNAL  1.000000e+00  (FREE)  -1  Sy Layer 84
 1.000000e-10
INTERNAL  1.000000e+00  (FREE)  -1  Kx Layer 85
 1.000000e-04
INTERNAL  1.000000e+00  (FREE)  -1  Kz Layer 85
 1.000000e-04
INTERNAL  1.000000e+00  (FREE)  -1  Ss Layer 85
 1.000000e-10
INTERNAL  1.000000e+00  (FREE)  -1  Sy Layer 85
 1.000000e-10
INTERNAL  1.000000e+00  (FREE)  -1  Kx Layer 86
 1.000000e-04
INTERNAL  1.000000e+00  (FREE)  -1  Kz Layer 86
 1.000000e-04
INTERNAL  1.000000e+00  (FREE)  -1  Ss Layer 86
 1.000000e-10
INTERNAL  1.000000e+00  (FREE)  -1  Sy Layer 86
 1.000000e-10
INTERNAL  1.000000e+00  (FREE)  -1  Kx Layer 87
 1.000000e-04
INTERNAL  1.000000e+00  (FREE)  -1  Kz Layer 87
 1.000000e-04
INTERNAL  1.000000e+00  (FREE)  -1  Ss Layer 87
 1.000000e-10
INTERNAL  1.000000e+00  (FREE)  -1  Sy Layer 87
 1.000000e-10
INTERNAL  1.000000e+00  (FREE)  -1  Kx Layer 88
 1.000000e-04
INTERNAL  1.000000e+00  (FREE)  -1  Kz Layer 88
 1.000000e-04
INTERNAL  1.000000e+00  (FREE)  -1  Ss Layer 88
 1.000000e-10
INTERNAL  1.000000e+00  (FREE)  -1  Sy Layer 88
 1.000000e-10
INTERNAL  1.000000e+00  (FREE)  -1  Kx Layer 89
 1.000000e-04
INTERNAL  1.000000e+00  (FREE)  -1  Kz Layer 89
 1.000000e-04
INTERNAL  1.000000e+00  (FREE)  -1  Ss Layer 89
 1.000000e-10
INTERNAL  1.000000e+00  (FREE)  -1  Sy Layer 89
 1.000000e-10
INTERNAL  1.000000e+00  (FREE)  -1  Kx Layer 90
 1.000000e-04
INTERNAL  1.000000e+00  (FREE)  -1  Kz Layer 90
 1.000000e-04
INTERNAL  1.000000e+00  (FREE)  -1  Ss Layer 90
 1.000000e-10
INTERNAL  1.000000e+00  (FREE)  -1  Sy Layer 90
 1.000000e-10
INTERNAL  1.000000e+00  (FREE)  -1  Kx Layer 91
 1.000000e-04
INTERNAL  1.000000e+00  (FREE)  -1  Kz Layer 91
 1.000000e-04
INTERNAL  1.000000e+00  (FREE)  -1  Ss Layer 91
 1.000000e-10
INTERNAL  1.000000e+00  (FREE)  -1  Sy Layer 91
 1.000000e-10
INTERNAL  1.000000e+00  (FREE)  -1  Kx Layer 92
 1.000000e-04
INTERNAL  1.000000e+00  (FREE)  -1  Kz Layer 92
 1.000000e-04
INTERNAL  1.000000e+00  (FREE)  -1  Ss Layer 92
 1.000000e-10
INTERNAL  1.000000e+00  (FREE)  -1  Sy Layer 92
 1.000000e-10
INTERNAL  1.000000e+00  (FREE)  -1  Kx Layer 93
 1.000000e-04
INTERNAL  1.000000e+00  (FREE)  -1  Kz Layer 93
 1.000000e-04
INTERNAL  1.000000e+00  (FREE)  -1  Ss Layer 93
 1.000000e-10
INTERNAL  1.000000e+00  (FREE)  -1  Sy Layer 93
 1.000000e-10
INTERNAL  1.000000e+00  (FREE)  -1  Kx Layer 94
 1.000000e-04
INTERNAL  1.000000e+00  (FREE)  -1  Kz Layer 94
 1.000000e-04
INTERNAL  1.000000e+00  (FREE)  -1  Ss Layer 94
 1.000000e-10
INTERNAL  1.000000e+00  (FREE)  -1  Sy Layer 94
 1.000000e-10
INTERNAL  1.000000e+00  (FREE)  -1  Kx Layer 95
 1.000000e-04
INTERNAL  1.000000e+00  (FREE)  -1  Kz Layer 95
 1.000000e-04
INTERNAL  1.000000e+00  (FREE)  -1  Ss Layer 95
 1.000000e-10
INTERNAL  1.000000e+00  (FREE)  -1  Sy Layer 95
 1.000000e-10
INTERNAL  1.000000e+00  (FREE)  -1  Kx Layer 96
 1.000000e-04
INTERNAL  1.000000e+00  (FREE)  -1  Kz Layer 96
 1.000000e-04
INTERNAL  1.000000e+00  (FREE)  -1  Ss Layer 96
 1.000000e-10
INTERNAL  1.000000e+00  (FREE)  -1  Sy Layer 96
 1.000000e-10
INTERNAL  1.000000e+00  (FREE)  -1  Kx Layer 97
 1.000000e-04
INTERNAL  1.000000e+00  (FREE)  -1  Kz Layer 97
 1.000000e-04
INTERNAL  1.000000e+00  (FREE)  -1  Ss Layer 97
 1.000000e-10
INTERNAL  1.000000e+00  (FREE)  -1  Sy Layer 97
 1.000000e-10
INTERNAL  1.000000e+00  (FREE)  -1  Kx Layer 98
 1.000000e-04
INTERNAL  1.000000e+00  (FREE)  -1  Kz Layer 98
 1.000000e-04
INTERNAL  1.000000e+00  (FREE)  -1  Ss Layer 98
 1.000000e-10
INTERNAL  1.000000e+00  (FREE)  -1  Sy Layer 98
 1.000000e-10
INTERNAL  1.000000e+00  (FREE)  -1  Kx Layer 99
 1.000000e-04
INTERNAL  1.000000e+00  (FREE)  -1  Kz Layer 99
 1.000000e-04
INTERNAL  1.000000e+00  (FREE)  -1  Ss Layer 99
 1.000000e-10
INTERNAL  1.000000e+00  (FREE)  -1  Sy Layer 99
 1.000000e-10
INTERNAL  1.000000e+00  (FREE)  -1  Kx Layer 100
 1.000000e-04
INTERNAL  1.000000e+00  (FREE)  -1  Kz Layer 100
 1.000000e-04
INTERNAL  1.000000e+00  (FREE)  -1  Ss Layer 100
 1.000000e-10
INTERNAL  1.000000e+00  (FREE)  -1  Sy Layer 100
 1.000000e-10
INTERNAL  1.000000e+00  (FREE)  -1  Kx Layer 101
 1.000000e-04
INTERNAL  1.000000e+00  (FREE)  -1  Kz Layer 101
 1.000000e-04
INTERNAL  1.000000e+00  (FREE)  -1  Ss Layer 101
 1.000000e-10
INTERNAL  1.000000e+00  (FREE)  -1  Sy Layer 101
 1.000000e-10
INTERNAL  1.000000e+00  (FREE)  -1  Kx Layer 102
 1.000000e-04
INTERNAL  1.000000e+00  (FREE)  -1  Kz Layer 102
 1.000000e-04
INTERNAL  1.000000e+00  (FREE)  -1  Ss Layer 102
 1.000000e-10
INTERNAL  1.000000e+00  (FREE)  -1  Sy Layer 102
 1.000000e-10
INTERNAL  1.000000e+00  (FREE)  -1  Kx Layer 103
 1.000000e-04
INTERNAL  1.000000e+00  (FREE)  -1  Kz Layer 103
 1.000000e-04
INTERNAL  1.000000e+00  (FREE)  -1  Ss Layer 103
 1.000000e-10
INTERNAL  1.000000e+00  (FREE)  -1  Sy Layer 103
 1.000000e-10
INTERNAL  1.000000e+00  (FREE)  -1  Kx Layer 104
 1.000000e-04
INTERNAL  1.000000e+00  (FREE)  -1  Kz Layer 104
 1.000000e-04
INTERNAL  1.000000e+00  (FREE)  -1  Ss Layer 104
 1.000000e-10
INTERNAL  1.000000e+00  (FREE)  -1  Sy Layer 104
 1.000000e-10
INTERNAL  1.000000e+00  (FREE)  -1  Kx Layer 105
 1.000000e-04
INTERNAL  1.000000e+00  (FREE)  -1  Kz Layer 105
 1.000000e-04
INTERNAL  1.000000e+00  (FREE)  -1  Ss Layer 105
 1.000000e-10
INTERNAL  1.000000e+00  (FREE)  -1  Sy Layer 105
 1.000000e-10
INTERNAL  1.000000e+00  (FREE)  -1  Kx Layer 106
 1.000000e-04
INTERNAL  1.000000e+00  (FREE)  -1  Kz Layer 106
 1.000000e-04
INTERNAL  1.000000e+00  (FREE)  -1  Ss Layer 106
 1.000000e-10
INTERNAL  1.000000e+00  (FREE)  -1  Sy Layer 106
 1.000000e-10