# MODFLOW-USG Block-Centered Transport (BCT) Package
 1 0 1 1 5 1 0   -1.000000e+00 1.000000e-07    1 0 1.028820e-06 0 0  0   1  0  0  1 TIMEWEIGHT 1.000000  MULTIFILE stall
  5.800000e-01  1.000000e+03  4.174000e+03
INTERNAL  1.000000e+00  (FREE)   1  Porosity Layer 1
 3.500000e-01
INTERNAL  1.000000e+00  (FREE)   1  Porosity Layer 2
 3.500000e-01
INTERNAL  1.000000e+00  (FREE)   1  Porosity Layer 3
 3.500000e-01
INTERNAL  1.000000e+00  (FREE)   1  Porosity Layer 4
 3.500000e-01
INTERNAL  1.000000e+00  (FREE)   1  Porosity Layer 5
 3.500000e-01
INTERNAL  1.000000e+00  (FREE)   1  Porosity Layer 6
 3.500000e-01
INTERNAL  1.000000e+00  (FREE)   1  Porosity Layer 7
 3.500000e-01
INTERNAL  1.000000e+00  (FREE)   1  Porosity Layer 8
 3.500000e-01
INTERNAL  1.000000e+00  (FREE)   1  Porosity Layer 9
 3.500000e-01
INTERNAL  1.000000e+00  (FREE)   1  Porosity Layer 10
 3.500000e-01
INTERNAL  1.000000e+00  (FREE)   1  Porosity Layer 11
 3.500000e-01
INTERNAL  1.000000e+00  (FREE)   1  Porosity Layer 12
 3.500000e-01
INTERNAL  1.000000e+00  (FREE)   1  Porosity Layer 13
 3.500000e-01
INTERNAL  1.000000e+00  (FREE)   1  Porosity Layer 14
 3.500000e-01
INTERNAL  1.000000e+00  (FREE)   1  Porosity Layer 15
 3.500000e-01
INTERNAL  1.000000e+00  (FREE)   1  Porosity Layer 16
 3.500000e-01
INTERNAL  1.000000e+00  (FREE)   1  Porosity Layer 17
 3.500000e-01
INTERNAL  1.000000e+00  (FREE)   1  Porosity Layer 18
 3.500000e-01
INTERNAL  1.000000e+00  (FREE)   1  Porosity Layer 19
 3.500000e-01
INTERNAL  1.000000e+00  (FREE)   1  Porosity Layer 20
 3.500000e-01
INTERNAL  1.000000e+00  (FREE)   1  Porosity Layer 21
 3.500000e-01
INTERNAL  1.000000e+00  (FREE)   1  Porosity Layer 22
 3.500000e-01
INTERNAL  1.000000e+00  (FREE)   1  Porosity Layer 23
 3.500000e-01
INTERNAL  1.000000e+00  (FREE)   1  Porosity Layer 24
 3.500000e-01
INTERNAL  1.000000e+00  (FREE)   1  Porosity Layer 25
 3.500000e-01
INTERNAL  1.000000e+00  (FREE)   1  Porosity Layer 26
 3.500000e-01
INTERNAL  1.000000e+00  (FREE)   1  Porosity Layer 27
 3.500000e-01
INTERNAL  1.000000e+00  (FREE)   1  Porosity Layer 28
 3.500000e-01
INTERNAL  1.000000e+00  (FREE)   1  Porosity Layer 29
 3.500000e-01
INTERNAL  1.000000e+00  (FREE)   1  Porosity Layer 30
 3.500000e-01
INTERNAL  1.000000e+00  (FREE)   1  Porosity Layer 31
 3.500000e-01
INTERNAL  1.000000e+00  (FREE)   1  Porosity Layer 32
 3.500000e-01
INTERNAL  1.000000e+00  (FREE)   1  Porosity Layer 33
 3.500000e-01
INTERNAL  1.000000e+00  (FREE)   1  Porosity Layer 34
 3.500000e-01
INTERNAL  1.000000e+00  (FREE)   1  Porosity Layer 35
 3.500000e-01
INTERNAL  1.000000e+00  (FREE)   1  Porosity Layer 36
 3.500000e-01
INTERNAL  1.000000e+00  (FREE)   1  Porosity Layer 37
 3.500000e-01
INTERNAL  1.000000e+00  (FREE)   1  Porosity Layer 38
 3.500000e-01
INTERNAL  1.000000e+00  (FREE)   1  Porosity Layer 39
 3.500000e-01
INTERNAL  1.000000e+00  (FREE)   1  Porosity Layer 40
 3.500000e-01
INTERNAL  1.000000e+00  (FREE)   1  Porosity Layer 41
 3.500000e-01
INTERNAL  1.000000e+00  (FREE)   1  Porosity Layer 42
 3.500000e-01
INTERNAL  1.000000e+00  (FREE)   1  Porosity Layer 43
 3.500000e-01
INTERNAL  1.000000e+00  (FREE)   1  Porosity Layer 44
 3.500000e-01
INTERNAL  1.000000e+00  (FREE)   1  Porosity Layer 45
 3.500000e-01
INTERNAL  1.000000e+00  (FREE)   1  Porosity Layer 46
 3.500000e-01
INTERNAL  1.000000e+00  (FREE)   1  Porosity Layer 47
 3.500000e-01
INTERNAL  1.000000e+00  (FREE)   1  Porosity Layer 48
 3.500000e-01
INTERNAL  1.000000e+00  (FREE)   1  Porosity Layer 49
 3.500000e-01
INTERNAL  1.000000e+00  (FREE)   1  Porosity Layer 50
 3.500000e-01
INTERNAL  1.000000e+00  (FREE)   1  Porosity Layer 51
 3.500000e-01
INTERNAL  1.000000e+00  (FREE)   1  Porosity Layer 52
 3.500000e-01
INTERNAL  1.000000e+00  (FREE)   1  Porosity Layer 53
 3.500000e-01
INTERNAL  1.000000e+00  (FREE)   1  Porosity Layer 54
 3.500000e-01
INTERNAL  1.000000e+00  (FREE)   1  Porosity Layer 55
 3.500000e-01
INTERNAL  1.000000e+00  (FREE)   1  Porosity Layer 56
 3.500000e-01
INTERNAL  1.000000e+00  (FREE)   1  Porosity Layer 57
 3.500000e-01
INTERNAL  1.000000e+00  (FREE)   1  Porosity Layer 58
 3.500000e-01
INTERNAL  1.000000e+00  (FREE)   1  Porosity Layer 59
 3.500000e-01
INTERNAL  1.000000e+00  (FREE)   1  Porosity Layer 60
 3.500000e-01
INTERNAL  1.000000e+00  (FREE)   1  Porosity Layer 61
 3.500000e-01
INTERNAL  1.000000e+00  (FREE)   1  Porosity Layer 62
 3.500000e-01
INTERNAL  1.000000e+00  (FREE)   1  Porosity Layer 63
 3.500000e-01
INTERNAL  1.000000e+00  (FREE)   1  Porosity Layer 64
 3.500000e-01
INTERNAL  1.000000e+00  (FREE)   1  Porosity Layer 65
 3.500000e-01
INTERNAL  1.000000e+00  (FREE)   1  Porosity Layer 66
 3.500000e-01
INTERNAL  1.000000e+00  (FREE)   1  Porosity Layer 67
 3.500000e-01
INTERNAL  1.000000e+00  (FREE)   1  Porosity Layer 68
 3.500000e-01
INTERNAL  1.000000e+00  (FREE)   1  Porosity Layer 69
 3.500000e-01
INTERNAL  1.000000e+00  (FREE)   1  Porosity Layer 70
 3.500000e-01
INTERNAL  1.000000e+00  (FREE)   1  Porosity Layer 71
 3.500000e-01
INTERNAL  1.000000e+00  (FREE)   1  Porosity Layer 72
 3.500000e-01
INTERNAL  1.000000e+00  (FREE)   1  Porosity Layer 73
 3.500000e-01
INTERNAL  1.000000e+00  (FREE)   1  Porosity Layer 74
 3.500000e-01
INTERNAL  1.000000e+00  (FREE)   1  Porosity Layer 75
 3.500000e-01
INTERNAL  1.000000e+00  (FREE)   1  Porosity Layer 76
 3.500000e-01
INTERNAL  1.000000e+00  (FREE)   1  Porosity Layer 77
 3.500000e-01
INTERNAL  1.000000e+00  (FREE)   1  Porosity Layer 78
 3.500000e-01
INTERNAL  1.000000e+00  (FREE)   1  Porosity Layer 79
 3.500000e-01
INTERNAL  1.000000e+00  (FREE)   1  Porosity Layer 80
 3.500000e-01
INTERNAL  1.000000e+00  (FREE)   1  Porosity Layer 81
 3.500000e-01
INTERNAL  1.000000e+00  (FREE)   1  Porosity Layer 82
 3.500000e-01
INTERNAL  1.000000e+00  (FREE)   1  Porosity Layer 83
 3.500000e-01
INTERNAL  1.000000e+00  (FREE)   1  Porosity Layer 84
 3.500000e-01
INTERNAL  1.000000e+00  (FREE)   1  Porosity Layer 85
 3.500000e-01
INTERNAL  1.000000e+00  (FREE)   1  Porosity Layer 86
 3.500000e-01
INTERNAL  1.000000e+00  (FREE)   1  Porosity Layer 87
 3.500000e-01
INTERNAL  1.000000e+00  (FREE)   1  Porosity Layer 88
 3.500000e-01
INTERNAL  1.000000e+00  (FREE)   1  Porosity Layer 89
 3.500000e-01
INTERNAL  1.000000e+00  (FREE)   1  Porosity Layer 90
 3.500000e-01
INTERNAL  1.000000e+00  (FREE)   1  Porosity Layer 91
 3.500000e-01
INTERNAL  1.000000e+00  (FREE)   1  Porosity Layer 92
 3.500000e-01
INTERNAL  1.000000e+00  (FREE)   1  Porosity Layer 93
 3.500000e-01
INTERNAL  1.000000e+00  (FREE)   1  Porosity Layer 94
 3.500000e-01
INTERNAL  1.000000e+00  (FREE)   1  Porosity Layer 95
 3.500000e-01
INTERNAL  1.000000e+00  (FREE)   1  Porosity Layer 96
 3.500000e-01
INTERNAL  1.000000e+00  (FREE)   1  Porosity Layer 97
 3.500000e-01
INTERNAL  1.000000e+00  (FREE)   1  Porosity Layer 98
 3.500000e-01
INTERNAL  1.000000e+00  (FREE)   1  Porosity Layer 99
 3.500000e-01
INTERNAL  1.000000e+00  (FREE)   1  Porosity Layer 100
 3.500000e-01
INTERNAL  1.000000e+00  (FREE)   1  Porosity Layer 101
 3.500000e-01
INTERNAL  1.000000e+00  (FREE)   1  Porosity Layer 102
 3.500000e-01
INTERNAL  1.000000e+00  (FREE)   1  Porosity Layer 103
 3.500000e-01
INTERNAL  1.000000e+00  (FREE)   1  Porosity Layer 104
 3.500000e-01
INTERNAL  1.000000e+00  (FREE)   1  Porosity Layer 105
 3.500000e-01
INTERNAL  1.000000e+00  (FREE)   1  Porosity Layer 106
 3.500000e-01
INTERNAL  1.000000e+00  (FREE)   1  Porosity Layer 107
 3.500000e-01
INTERNAL  1.000000e+00  (FREE)   1  Porosity Layer 108
 3.500000e-01
INTERNAL  1.000000e+00  (FREE)   1  Porosity Layer 109
 3.500000e-01
INTERNAL  1.000000e+00  (FREE)   1  Porosity Layer 110
 3.500000e-01
INTERNAL  1.000000e+00  (FREE)   1  Porosity Layer 111
 3.500000e-01
INTERNAL  1.000000e+00  (FREE)   1  Porosity Layer 112
 3.500000e-01
INTERNAL  1.000000e+00  (FREE)   1  Porosity Layer 113
 3.500000e-01
INTERNAL  1.000000e+00  (FREE)   1  Porosity Layer 114
 3.500000e-01
INTERNAL  1.000000e+00  (FREE)   1  Porosity Layer 115
 3.500000e-01
INTERNAL  1.000000e+00  (FREE)   1  Porosity Layer 116
 3.500000e-01
INTERNAL  1.000000e+00  (FREE)   1  Porosity Layer 117
 3.500000e-01
INTERNAL  1.000000e+00  (FREE)   1  Porosity Layer 118
 3.500000e-01
INTERNAL  1.000000e+00  (FREE)   1  Porosity Layer 119
 3.500000e-01
INTERNAL  1.000000e+00  (FREE)   1  Porosity Layer 120
 3.500000e-01
INTERNAL  1.000000e+00  (FREE)   1  BULKD Layer 1
 1.709500e+03
INTERNAL  1.000000e+00  (FREE)   1  BULKD Layer 2
 1.709500e+03
INTERNAL  1.000000e+00  (FREE)   1  BULKD Layer 3
 1.709500e+03
INTERNAL  1.000000e+00  (FREE)   1  BULKD Layer 4
 1.709500e+03
INTERNAL  1.000000e+00  (FREE)   1  BULKD Layer 5
 1.709500e+03
INTERNAL  1.000000e+00  (FREE)   1  BULKD Layer 6
 1.709500e+03
INTERNAL  1.000000e+00  (FREE)   1  BULKD Layer 7
 1.709500e+03
INTERNAL  1.000000e+00  (FREE)   1  BULKD Layer 8
 1.709500e+03
INTERNAL  1.000000e+00  (FREE)   1  BULKD Layer 9
 1.709500e+03
INTERNAL  1.000000e+00  (FREE)   1  BULKD Layer 10
 1.709500e+03
INTERNAL  1.000000e+00  (FREE)   1  BULKD Layer 11
 1.709500e+03
INTERNAL  1.000000e+00  (FREE)   1  BULKD Layer 12
 1.709500e+03
INTERNAL  1.000000e+00  (FREE)   1  BULKD Layer 13
 1.709500e+03
INTERNAL  1.000000e+00  (FREE)   1  BULKD Layer 14
 1.709500e+03
INTERNAL  1.000000e+00  (FREE)   1  BULKD Layer 15
 1.709500e+03
INTERNAL  1.000000e+00  (FREE)   1  BULKD Layer 16
 1.709500e+03
INTERNAL  1.000000e+00  (FREE)   1  BULKD Layer 17
 1.709500e+03
INTERNAL  1.000000e+00  (FREE)   1  BULKD Layer 18
 1.709500e+03
INTERNAL  1.000000e+00  (FREE)   1  BULKD Layer 19
 1.709500e+03
INTERNAL  1.000000e+00  (FREE)   1  BULKD Layer 20
 1.709500e+03
INTERNAL  1.000000e+00  (FREE)   1  BULKD Layer 21
 1.709500e+03
INTERNAL  1.000000e+00  (FREE)   1  BULKD Layer 22
 1.709500e+03
INTERNAL  1.000000e+00  (FREE)   1  BULKD Layer 23
 1.709500e+03
INTERNAL  1.000000e+00  (FREE)   1  BULKD Layer 24
 1.709500e+03
INTERNAL  1.000000e+00  (FREE)   1  BULKD Layer 25
 1.709500e+03
INTERNAL  1.000000e+00  (FREE)   1  BULKD Layer 26
 1.709500e+03
INTERNAL  1.000000e+00  (FREE)   1  BULKD Layer 27
 1.709500e+03
INTERNAL  1.000000e+00  (FREE)   1  BULKD Layer 28
 1.709500e+03
INTERNAL  1.000000e+00  (FREE)   1  BULKD Layer 29
 1.709500e+03
INTERNAL  1.000000e+00  (FREE)   1  BULKD Layer 30
 1.709500e+03
INTERNAL  1.000000e+00  (FREE)   1  BULKD Layer 31
 1.709500e+03
INTERNAL  1.000000e+00  (FREE)   1  BULKD Layer 32
 1.709500e+03
INTERNAL  1.000000e+00  (FREE)   1  BULKD Layer 33
 1.709500e+03
INTERNAL  1.000000e+00  (FREE)   1  BULKD Layer 34
 1.709500e+03
INTERNAL  1.000000e+00  (FREE)   1  BULKD Layer 35
 1.709500e+03
INTERNAL  1.000000e+00  (FREE)   1  BULKD Layer 36
 1.709500e+03
INTERNAL  1.000000e+00  (FREE)   1  BULKD Layer 37
 1.709500e+03
INTERNAL  1.000000e+00  (FREE)   1  BULKD Layer 38
 1.709500e+03
INTERNAL  1.000000e+00  (FREE)   1  BULKD Layer 39
 1.709500e+03
INTERNAL  1.000000e+00  (FREE)   1  BULKD Layer 40
 1.709500e+03
INTERNAL  1.000000e+00  (FREE)   1  BULKD Layer 41
 1.709500e+03
INTERNAL  1.000000e+00  (FREE)   1  BULKD Layer 42
 1.709500e+03
INTERNAL  1.000000e+00  (FREE)   1  BULKD Layer 43
 1.709500e+03
INTERNAL  1.000000e+00  (FREE)   1  BULKD Layer 44
 1.709500e+03
INTERNAL  1.000000e+00  (FREE)   1  BULKD Layer 45
 1.709500e+03
INTERNAL  1.000000e+00  (FREE)   1  BULKD Layer 46
 1.709500e+03
INTERNAL  1.000000e+00  (FREE)   1  BULKD Layer 47
 1.709500e+03
INTERNAL  1.000000e+00  (FREE)   1  BULKD Layer 48
 1.709500e+03
INTERNAL  1.000000e+00  (FREE)   1  BULKD Layer 49
 1.709500e+03
INTERNAL  1.000000e+00  (FREE)   1  BULKD Layer 50
 1.709500e+03
INTERNAL  1.000000e+00  (FREE)   1  BULKD Layer 51
 1.709500e+03
INTERNAL  1.000000e+00  (FREE)   1  BULKD Layer 52
 1.709500e+03
INTERNAL  1.000000e+00  (FREE)   1  BULKD Layer 53
 1.709500e+03
INTERNAL  1.000000e+00  (FREE)   1  BULKD Layer 54
 1.709500e+03
INTERNAL  1.000000e+00  (FREE)   1  BULKD Layer 55
 1.709500e+03
INTERNAL  1.000000e+00  (FREE)   1  BULKD Layer 56
 1.709500e+03
INTERNAL  1.000000e+00  (FREE)   1  BULKD Layer 57
 1.709500e+03
INTERNAL  1.000000e+00  (FREE)   1  BULKD Layer 58
 1.709500e+03
INTERNAL  1.000000e+00  (FREE)   1  BULKD Layer 59
 1.709500e+03
INTERNAL  1.000000e+00  (FREE)   1  BULKD Layer 60
 1.709500e+03
INTERNAL  1.000000e+00  (FREE)   1  BULKD Layer 61
 1.709500e+03
INTERNAL  1.000000e+00  (FREE)   1  BULKD Layer 62
 1.709500e+03
INTERNAL  1.000000e+00  (FREE)   1  BULKD Layer 63
 1.709500e+03
INTERNAL  1.000000e+00  (FREE)   1  BULKD Layer 64
 1.709500e+03
INTERNAL  1.000000e+00  (FREE)   1  BULKD Layer 65
 1.709500e+03
INTERNAL  1.000000e+00  (FREE)   1  BULKD Layer 66
 1.709500e+03
INTERNAL  1.000000e+00  (FREE)   1  BULKD Layer 67
 1.709500e+03
INTERNAL  1.000000e+00  (FREE)   1  BULKD Layer 68
 1.709500e+03
INTERNAL  1.000000e+00  (FREE)   1  BULKD Layer 69
 1.709500e+03
INTERNAL  1.000000e+00  (FREE)   1  BULKD Layer 70
 1.709500e+03
INTERNAL  1.000000e+00  (FREE)   1  BULKD Layer 71
 1.709500e+03
INTERNAL  1.000000e+00  (FREE)   1  BULKD Layer 72
 1.709500e+03
INTERNAL  1.000000e+00  (FREE)   1  BULKD Layer 73
 1.709500e+03
INTERNAL  1.000000e+00  (FREE)   1  BULKD Layer 74
 1.709500e+03
INTERNAL  1.000000e+00  (FREE)   1  BULKD Layer 75
 1.709500e+03
INTERNAL  1.000000e+00  (FREE)   1  BULKD Layer 76
 1.709500e+03
INTERNAL  1.000000e+00  (FREE)   1  BULKD Layer 77
 1.709500e+03
INTERNAL  1.000000e+00  (FREE)   1  BULKD Layer 78
 1.709500e+03
INTERNAL  1.000000e+00  (FREE)   1  BULKD Layer 79
 1.709500e+03
INTERNAL  1.000000e+00  (FREE)   1  BULKD Layer 80
 1.709500e+03
INTERNAL  1.000000e+00  (FREE)   1  BULKD Layer 81
 1.709500e+03
INTERNAL  1.000000e+00  (FREE)   1  BULKD Layer 82
 1.709500e+03
INTERNAL  1.000000e+00  (FREE)   1  BULKD Layer 83
 1.709500e+03
INTERNAL  1.000000e+00  (FREE)   1  BULKD Layer 84
 1.709500e+03
INTERNAL  1.000000e+00  (FREE)   1  BULKD Layer 85
 1.709500e+03
INTERNAL  1.000000e+00  (FREE)   1  BULKD Layer 86
 1.709500e+03
INTERNAL  1.000000e+00  (FREE)   1  BULKD Layer 87
 1.709500e+03
INTERNAL  1.000000e+00  (FREE)   1  BULKD Layer 88
 1.709500e+03
INTERNAL  1.000000e+00  (FREE)   1  BULKD Layer 89
 1.709500e+03
INTERNAL  1.000000e+00  (FREE)   1  BULKD Layer 90
 1.709500e+03
INTERNAL  1.000000e+00  (FREE)   1  BULKD Layer 91
 1.709500e+03
INTERNAL  1.000000e+00  (FREE)   1  BULKD Layer 92
 1.709500e+03
INTERNAL  1.000000e+00  (FREE)   1  BULKD Layer 93
 1.709500e+03
INTERNAL  1.000000e+00  (FREE)   1  BULKD Layer 94
 1.709500e+03
INTERNAL  1.000000e+00  (FREE)   1  BULKD Layer 95
 1.709500e+03
INTERNAL  1.000000e+00  (FREE)   1  BULKD Layer 96
 1.709500e+03
INTERNAL  1.000000e+00  (FREE)   1  BULKD Layer 97
 1.709500e+03
INTERNAL  1.000000e+00  (FREE)   1  BULKD Layer 98
 1.709500e+03
INTERNAL  1.000000e+00  (FREE)   1  BULKD Layer 99
 1.709500e+03
INTERNAL  1.000000e+00  (FREE)   1  BULKD Layer 100
 1.709500e+03
INTERNAL  1.000000e+00  (FREE)   1  BULKD Layer 101
 1.709500e+03
INTERNAL  1.000000e+00  (FREE)   1  BULKD Layer 102
 1.709500e+03
INTERNAL  1.000000e+00  (FREE)   1  BULKD Layer 103
 1.709500e+03
INTERNAL  1.000000e+00  (FREE)   1  BULKD Layer 104
 1.709500e+03
INTERNAL  1.000000e+00  (FREE)   1  BULKD Layer 105
 1.709500e+03
INTERNAL  1.000000e+00  (FREE)   1  BULKD Layer 106
 1.709500e+03
INTERNAL  1.000000e+00  (FREE)   1  BULKD Layer 107
 1.709500e+03
INTERNAL  1.000000e+00  (FREE)   1  BULKD Layer 108
 1.709500e+03
INTERNAL  1.000000e+00  (FREE)   1  BULKD Layer 109
 1.709500e+03
INTERNAL  1.000000e+00  (FREE)   1  BULKD Layer 110
 1.709500e+03
INTERNAL  1.000000e+00  (FREE)   1  BULKD Layer 111
 1.709500e+03
INTERNAL  1.000000e+00  (FREE)   1  BULKD Layer 112
 1.709500e+03
INTERNAL  1.000000e+00  (FREE)   1  BULKD Layer 113
 1.709500e+03
INTERNAL  1.000000e+00  (FREE)   1  BULKD Layer 114
 1.709500e+03
INTERNAL  1.000000e+00  (FREE)   1  BULKD Layer 115
 1.709500e+03
INTERNAL  1.000000e+00  (FREE)   1  BULKD Layer 116
 1.709500e+03
INTERNAL  1.000000e+00  (FREE)   1  BULKD Layer 117
 1.709500e+03
INTERNAL  1.000000e+00  (FREE)   1  BULKD Layer 118
 1.709500e+03
INTERNAL  1.000000e+00  (FREE)   1  BULKD Layer 119
 1.709500e+03
INTERNAL  1.000000e+00  (FREE)   1  BULKD Layer 120
 1.709500e+03
INTERNAL  1.0  (FREE)  -1  ANGLEX by NJAG
 0.000000e+00 0.000000e+00
 0.000000e+00 0.000000e+00 0.000000e+00
 0.000000e+00 0.000000e+00 0.000000e+00
 0.000000e+00 0.000000e+00 0.000000e+00
 0.000000e+00 0.000000e+00 0.000000e+00
 0.000000e+00 0.000000e+00 0.000000e+00
 0.000000e+00 0.000000e+00 0.000000e+00
 0.000000e+00 0.000000e+00 0.000000e+00
 0.000000e+00 0.000000e+00 0.000000e+00
 0.000000e+00 0.000000e+00 0.000000e+00
 0.000000e+00 0.000000e+00 0.000000e+00
 0.000000e+00 0.000000e+00 0.000000e+00
 0.000000e+00 0.000000e+00 0.000000e+00
 0.000000e+00 0.000000e+00 0.000000e+00
 0.000000e+00 0.000000e+00 0.000000e+00
 0.000000e+00 0.000000e+00 0.000000e+00
 0.000000e+00 0.000000e+00 0.000000e+00
 0.000000e+00 0.000000e+00 0.000000e+00
 0.000000e+00 0.000000e+00 0.000000e+00
 0.000000e+00 0.000000e+00 0.000000e+00
 0.000000e+00 0.000000e+00 0.000000e+00
 0.000000e+00 0.000000e+00 0.000000e+00
 0.000000e+00 0.000000e+00 0.000000e+00
 0.000000e+00 0.000000e+00 0.000000e+00
 0.000000e+00 0.000000e+00 0.000000e+00
 0.000000e+00 0.000000e+00 0.000000e+00
 0.000000e+00 0.000000e+00 0.000000e+00
 0.000000e+00 0.000000e+00 0.000000e+00
 0.000000e+00 0.000000e+00 0.000000e+00
 0.000000e+00 0.000000e+00 0.000000e+00
 0.000000e+00 0.000000e+00 0.000000e+00
 0.000000e+00 0.000000e+00 0.000000e+00
 0.000000e+00 0.000000e+00 0.000000e+00
 0.000000e+00 0.000000e+00 0.000000e+00
 0.000000e+00 0.000000e+00 0.000000e+00
 0.000000e+00 0.000000e+00 0.000000e+00
 0.000000e+00 0.000000e+00 0.000000e+00
 0.000000e+00 0.000000e+00 0.000000e+00
 0.000000e+00 0.000000e+00 0.000000e+00
 0.000000e+00 0.000000e+00 0.000000e+00
 0.000000e+00 0.000000e+00 0.000000e+00
 0.000000e+00 0.000000e+00 0.000000e+00
 0.000000e+00 0.000000e+00 0.000000e+00
 0.000000e+00 0.000000e+00 0.000000e+00
 0.000000e+00 0.000000e+00 0.000000e+00
 0.000000e+00 0.000000e+00 0.000000e+00
 0.000000e+00 0.000000e+00 0.000000e+00
 0.000000e+00 0.000000e+00 0.000000e+00
 0.000000e+00 0.000000e+00 0.000000e+00
 0.000000e+00 0.000000e+00 0.000000e+00
 0.000000e+00 0.000000e+00 0.000000e+00
 0.000000e+00 0.000000e+00 0.000000e+00
 0.000000e+00 0.000000e+00 0.000000e+00
 0.000000e+00 0.000000e+00 0.000000e+00
 0.000000e+00 0.000000e+00 0.000000e+00
 0.000000e+00 0.000000e+00 0.000000e+00
 0.000000e+00 0.000000e+00 0.000000e+00
 0.000000e+00 0.000000e+00 0.000000e+00
 0.000000e+00 0.000000e+00 0.000000e+00
 0.000000e+00 0.000000e+00 0.000000e+00
 0.000000e+00 0.000000e+00 0.000000e+00
 0.000000e+00 0.000000e+00 0.000000e+00
 0.000000e+00 0.000000e+00 0.000000e+00
 0.000000e+00 0.000000e+00 0.000000e+00
 0.000000e+00 0.000000e+00 0.000000e+00
 0.000000e+00 0.000000e+00 0.000000e+00
 0.000000e+00 0.000000e+00 0.000000e+00
 0.000000e+00 0.000000e+00 0.000000e+00
 0.000000e+00 0.000000e+00 0.000000e+00
 0.000000e+00 0.000000e+00 0.000000e+00
 0.000000e+00 0.000000e+00 0.000000e+00
 0.000000e+00 0.000000e+00 0.000000e+00
 0.000000e+00 0.000000e+00 0.000000e+00
 0.000000e+00 0.000000e+00 0.000000e+00
 0.000000e+00 0.000000e+00 0.000000e+00
 0.000000e+00 0.000000e+00 0.000000e+00
 0.000000e+00 0.000000e+00 0.000000e+00
 0.000000e+00 0.000000e+00 0.000000e+00
 0.000000e+00 0.000000e+00 0.000000e+00
 0.000000e+00 0.000000e+00 0.000000e+00
 0.000000e+00 0.000000e+00 0.000000e+00
 0.000000e+00 0.000000e+00 0.000000e+00
 0.000000e+00 0.000000e+00 0.000000e+00
 0.000000e+00 0.000000e+00 0.000000e+00
 0.000000e+00 0.000000e+00 0.000000e+00
 0.000000e+00 0.000000e+00 0.000000e+00
 0.000000e+00 0.000000e+00 0.000000e+00
 0.000000e+00 0.000000e+00 0.000000e+00
 0.000000e+00 0.000000e+00 0.000000e+00
 0.000000e+00 0.000000e+00 0.000000e+00
 0.000000e+00 0.000000e+00 0.000000e+00
 0.000000e+00 0.000000e+00 0.000000e+00
 0.000000e+00 0.000000e+00 0.000000e+00
 0.000000e+00 0.000000e+00 0.000000e+00
 0.000000e+00 0.000000e+00 0.000000e+00
 0.000000e+00 0.000000e+00 0.000000e+00
 0.000000e+00 0.000000e+00 0.000000e+00
 0.000000e+00 0.000000e+00 0.000000e+00
 0.000000e+00 0.000000e+00 0.000000e+00
 0.000000e+00 0.000000e+00 0.000000e+00
 0.000000e+00 0.000000e+00 0.000000e+00
 0.000000e+00 0.000000e+00 0.000000e+00
 0.000000e+00 0.000000e+00 0.000000e+00
 0.000000e+00 0.000000e+00 0.000000e+00
 0.000000e+00 0.000000e+00 0.000000e+00
 0.000000e+00 0.000000e+00 0.000000e+00
 0.000000e+00 0.000000e+00 0.000000e+00
 0.000000e+00 0.000000e+00 0.000000e+00
 0.000000e+00 0.000000e+00 0.000000e+00
 0.000000e+00 0.000000e+00 0.000000e+00
 0.000000e+00 0.000000e+00 0.000000e+00
 0.000000e+00 0.000000e+00 0.000000e+00
 0.000000e+00 0.000000e+00 0.000000e+00
 0.000000e+00 0.000000e+00 0.000000e+00
 0.000000e+00 0.000000e+00 0.000000e+00
 0.000000e+00 0.000000e+00 0.000000e+00
 0.000000e+00 0.000000e+00 0.000000e+00
 0.000000e+00 0.000000e+00 0.000000e+00
 0.000000e+00 0.000000e+00 0.000000e+00
 0.000000e+00 0.000000e+00
INTERNAL  1.000000e+00  (FREE)  -1  DL Layer 1
 0.000000e+00
INTERNAL  1.000000e+00  (FREE)  -1  DL Layer 2
 0.000000e+00
INTERNAL  1.000000e+00  (FREE)  -1  DL Layer 3
 0.000000e+00
INTERNAL  1.000000e+00  (FREE)  -1  DL Layer 4
 0.000000e+00
INTERNAL  1.000000e+00  (FREE)  -1  DL Layer 5
 0.000000e+00
INTERNAL  1.000000e+00  (FREE)  -1  DL Layer 6
 0.000000e+00
INTERNAL  1.000000e+00  (FREE)  -1  DL Layer 7
 0.000000e+00
INTERNAL  1.000000e+00  (FREE)  -1  DL Layer 8
 0.000000e+00
INTERNAL  1.000000e+00  (FREE)  -1  DL Layer 9
 0.000000e+00
INTERNAL  1.000000e+00  (FREE)  -1  DL Layer 10
 0.000000e+00
INTERNAL  1.000000e+00  (FREE)  -1  DL Layer 11
 0.000000e+00
INTERNAL  1.000000e+00  (FREE)  -1  DL Layer 12
 0.000000e+00
INTERNAL  1.000000e+00  (FREE)  -1  DL Layer 13
 0.000000e+00
INTERNAL  1.000000e+00  (FREE)  -1  DL Layer 14
 0.000000e+00
INTERNAL  1.000000e+00  (FREE)  -1  DL Layer 15
 0.000000e+00
INTERNAL  1.000000e+00  (FREE)  -1  DL Layer 16
 0.000000e+00
INTERNAL  1.000000e+00  (FREE)  -1  DL Layer 17
 0.000000e+00
INTERNAL  1.000000e+00  (FREE)  -1  DL Layer 18
 0.000000e+00
INTERNAL  1.000000e+00  (FREE)  -1  DL Layer 19
 0.000000e+00
INTERNAL  1.000000e+00  (FREE)  -1  DL Layer 20
 0.000000e+00
INTERNAL  1.000000e+00  (FREE)  -1  DL Layer 21
 0.000000e+00
INTERNAL  1.000000e+00  (FREE)  -1  DL Layer 22
 0.000000e+00
INTERNAL  1.000000e+00  (FREE)  -1  DL Layer 23
 0.000000e+00
INTERNAL  1.000000e+00  (FREE)  -1  DL Layer 24
 0.000000e+00
INTERNAL  1.000000e+00  (FREE)  -1  DL Layer 25
 0.000000e+00
INTERNAL  1.000000e+00  (FREE)  -1  DL Layer 26
 0.000000e+00
INTERNAL  1.000000e+00  (FREE)  -1  DL Layer 27
 0.000000e+00
INTERNAL  1.000000e+00  (FREE)  -1  DL Layer 28
 0.000000e+00
INTERNAL  1.000000e+00  (FREE)  -1  DL Layer 29
 0.000000e+00
INTERNAL  1.000000e+00  (FREE)  -1  DL Layer 30
 0.000000e+00
INTERNAL  1.000000e+00  (FREE)  -1  DL Layer 31
 0.000000e+00
INTERNAL  1.000000e+00  (FREE)  -1  DL Layer 32
 0.000000e+00
INTERNAL  1.000000e+00  (FREE)  -1  DL Layer 33
 0.000000e+00
INTERNAL  1.000000e+00  (FREE)  -1  DL Layer 34
 0.000000e+00
INTERNAL  1.000000e+00  (FREE)  -1  DL Layer 35
 0.000000e+00
INTERNAL  1.000000e+00  (FREE)  -1  DL Layer 36
 0.000000e+00
INTERNAL  1.000000e+00  (FREE)  -1  DL Layer 37
 0.000000e+00
INTERNAL  1.000000e+00  (FREE)  -1  DL Layer 38
 0.000000e+00
INTERNAL  1.000000e+00  (FREE)  -1  DL Layer 39
 0.000000e+00
INTERNAL  1.000000e+00  (FREE)  -1  DL Layer 40
 0.000000e+00
INTERNAL  1.000000e+00  (FREE)  -1  DL Layer 41
 0.000000e+00
INTERNAL  1.000000e+00  (FREE)  -1  DL Layer 42
 0.000000e+00
INTERNAL  1.000000e+00  (FREE)  -1  DL Layer 43
 0.000000e+00
INTERNAL  1.000000e+00  (FREE)  -1  DL Layer 44
 0.000000e+00
INTERNAL  1.000000e+00  (FREE)  -1  DL Layer 45
 0.000000e+00
INTERNAL  1.000000e+00  (FREE)  -1  DL Layer 46
 0.000000e+00
INTERNAL  1.000000e+00  (FREE)  -1  DL Layer 47
 0.000000e+00
INTERNAL  1.000000e+00  (FREE)  -1  DL Layer 48
 0.000000e+00
INTERNAL  1.000000e+00  (FREE)  -1  DL Layer 49
 0.000000e+00
INTERNAL  1.000000e+00  (FREE)  -1  DL Layer 50
 0.000000e+00
INTERNAL  1.000000e+00  (FREE)  -1  DL Layer 51
 0.000000e+00
INTERNAL  1.000000e+00  (FREE)  -1  DL Layer 52
 0.000000e+00
INTERNAL  1.000000e+00  (FREE)  -1  DL Layer 53
 0.000000e+00
INTERNAL  1.000000e+00  (FREE)  -1  DL Layer 54
 0.000000e+00
INTERNAL  1.000000e+00  (FREE)  -1  DL Layer 55
 0.000000e+00
INTERNAL  1.000000e+00  (FREE)  -1  DL Layer 56
 0.000000e+00
INTERNAL  1.000000e+00  (FREE)  -1  DL Layer 57
 0.000000e+00
INTERNAL  1.000000e+00  (FREE)  -1  DL Layer 58
 0.000000e+00
INTERNAL  1.000000e+00  (FREE)  -1  DL Layer 59
 0.000000e+00
INTERNAL  1.000000e+00  (FREE)  -1  DL Layer 60
 0.000000e+00
INTERNAL  1.000000e+00  (FREE)  -1  DL Layer 61
 0.000000e+00
INTERNAL  1.000000e+00  (FREE)  -1  DL Layer 62
 0.000000e+00
INTERNAL  1.000000e+00  (FREE)  -1  DL Layer 63
 0.000000e+00
INTERNAL  1.000000e+00  (FREE)  -1  DL Layer 64
 0.000000e+00
INTERNAL  1.000000e+00  (FREE)  -1  DL Layer 65
 0.000000e+00
INTERNAL  1.000000e+00  (FREE)  -1  DL Layer 66
 0.000000e+00
INTERNAL  1.000000e+00  (FREE)  -1  DL Layer 67
 0.000000e+00
INTERNAL  1.000000e+00  (FREE)  -1  DL Layer 68
 0.000000e+00
INTERNAL  1.000000e+00  (FREE)  -1  DL Layer 69
 0.000000e+00
INTERNAL  1.000000e+00  (FREE)  -1  DL Layer 70
 0.000000e+00
INTERNAL  1.000000e+00  (FREE)  -1  DL Layer 71
 0.000000e+00
INTERNAL  1.000000e+00  (FREE)  -1  DL Layer 72
 0.000000e+00
INTERNAL  1.000000e+00  (FREE)  -1  DL Layer 73
 0.000000e+00
INTERNAL  1.000000e+00  (FREE)  -1  DL Layer 74
 0.000000e+00
INTERNAL  1.000000e+00  (FREE)  -1  DL Layer 75
 0.000000e+00
INTERNAL  1.000000e+00  (FREE)  -1  DL Layer 76
 0.000000e+00
INTERNAL  1.000000e+00  (FREE)  -1  DL Layer 77
 0.000000e+00
INTERNAL  1.000000e+00  (FREE)  -1  DL Layer 78
 0.000000e+00
INTERNAL  1.000000e+00  (FREE)  -1  DL Layer 79
 0.000000e+00
INTERNAL  1.000000e+00  (FREE)  -1  DL Layer 80
 0.000000e+00
INTERNAL  1.000000e+00  (FREE)  -1  DL Layer 81
 0.000000e+00
INTERNAL  1.000000e+00  (FREE)  -1  DL Layer 82
 0.000000e+00
INTERNAL  1.000000e+00  (FREE)  -1  DL Layer 83
 0.000000e+00
INTERNAL  1.000000e+00  (FREE)  -1  DL Layer 84
 0.000000e+00
INTERNAL  1.000000e+00  (FREE)  -1  DL Layer 85
 0.000000e+00
INTERNAL  1.000000e+00  (FREE)  -1  DL Layer 86
 0.000000e+00
INTERNAL  1.000000e+00  (FREE)  -1  DL Layer 87
 0.000000e+00
INTERNAL  1.000000e+00  (FREE)  -1  DL Layer 88
 0.000000e+00
INTERNAL  1.000000e+00  (FREE)  -1  DL Layer 89
 0.000000e+00
INTERNAL  1.000000e+00  (FREE)  -1  DL Layer 90
 0.000000e+00
INTERNAL  1.000000e+00  (FREE)  -1  DL Layer 91
 0.000000e+00
INTERNAL  1.000000e+00  (FREE)  -1  DL Layer 92
 0.000000e+00
INTERNAL  1.000000e+00  (FREE)  -1  DL Layer 93
 0.000000e+00
INTERNAL  1.000000e+00  (FREE)  -1  DL Layer 94
 0.000000e+00
INTERNAL  1.000000e+00  (FREE)  -1  DL Layer 95
 0.000000e+00
INTERNAL  1.000000e+00  (FREE)  -1  DL Layer 96
 0.000000e+00
INTERNAL  1.000000e+00  (FREE)  -1  DL Layer 97
 0.000000e+00
INTERNAL  1.000000e+00  (FREE)  -1  DL Layer 98
 0.000000e+00
INTERNAL  1.000000e+00  (FREE)  -1  DL Layer 99
 0.000000e+00
INTERNAL  1.000000e+00  (FREE)  -1  DL Layer 100
 0.000000e+00
INTERNAL  1.000000e+00  (FREE)  -1  DL Layer 101
 0.000000e+00
INTERNAL  1.000000e+00  (FREE)  -1  DL Layer 102
 0.000000e+00
INTERNAL  1.000000e+00  (FREE)  -1  DL Layer 103
 0.000000e+00
INTERNAL  1.000000e+00  (FREE)  -1  DL Layer 104
 0.000000e+00
INTERNAL  1.000000e+00  (FREE)  -1  DL Layer 105
 0.000000e+00
INTERNAL  1.000000e+00  (FREE)  -1  DL Layer 106
 0.000000e+00
INTERNAL  1.000000e+00  (FREE)  -1  DL Layer 107
 0.000000e+00
INTERNAL  1.000000e+00  (FREE)  -1  DL Layer 108
 0.000000e+00
INTERNAL  1.000000e+00  (FREE)  -1  DL Layer 109
 0.000000e+00
INTERNAL  1.000000e+00  (FREE)  -1  DL Layer 110
 0.000000e+00
INTERNAL  1.000000e+00  (FREE)  -1  DL Layer 111
 0.000000e+00
INTERNAL  1.000000e+00  (FREE)  -1  DL Layer 112
 0.000000e+00
INTERNAL  1.000000e+00  (FREE)  -1  DL Layer 113
 0.000000e+00
INTERNAL  1.000000e+00  (FREE)  -1  DL Layer 114
 0.000000e+00
INTERNAL  1.000000e+00  (FREE)  -1  DL Layer 115
 0.000000e+00
INTERNAL  1.000000e+00  (FREE)  -1  DL Layer 116
 0.000000e+00
INTERNAL  1.000000e+00  (FREE)  -1  DL Layer 117
 0.000000e+00
INTERNAL  1.000000e+00  (FREE)  -1  DL Layer 118
 0.000000e+00
INTERNAL  1.000000e+00  (FREE)  -1  DL Layer 119
 0.000000e+00
CONSTANT  0.000000e+00              DL Layer 120
CONSTANT  0.000000e+00              DT Layer 1
CONSTANT  0.000000e+00              DT Layer 2
CONSTANT  0.000000e+00              DT Layer 3
CONSTANT  0.000000e+00              DT Layer 4
CONSTANT  0.000000e+00              DT Layer 5
CONSTANT  0.000000e+00              DT Layer 6
CONSTANT  0.000000e+00              DT Layer 7
CONSTANT  0.000000e+00              DT Layer 8
CONSTANT  0.000000e+00              DT Layer 9
CONSTANT  0.000000e+00              DT Layer 10
CONSTANT  0.000000e+00              DT Layer 11
CONSTANT  0.000000e+00              DT Layer 12
CONSTANT  0.000000e+00              DT Layer 13
CONSTANT  0.000000e+00              DT Layer 14