# File generated by Flopy version 3.5.0.dev0 on 10/30/2023 at 09:02:45.
BEGIN options
END options

BEGIN dimensions
  NLAY  3
  NROW  10
  NCOL  10
END dimensions

BEGIN griddata
  delr
    CONSTANT    1000.00000000
  delc
    CONSTANT    2000.00000000
  top
    CONSTANT       0.00000000
  botm  LAYERED
    CONSTANT    -100.00000000
    CONSTANT    -150.00000000
    CONSTANT    -350.00000000
END griddata

