# MODFLOW2000 Discretization File
 2  2  101  1  4  0
 0 0
         0    10.000(10E12.4)                    0     DELTA-X or C
         0    10.000(10E12.4)                    0     DELTA-Y or R
         0    10.000(10e12.4)                   -1     TOP of Model
         0     5.000(10e12.4)                   -1     BOTTOM of Layer   1
         00.0000e+00(10e12.4)                   -1     BOTTOM of Layer   2
   20.000000   1000  1.000000  SS
