# MODFLOW2005 Basic Package
#MODFLOW Data Set Created by Groundwater Vistas
#   

         1         1(25I3)                       0     IBOUND Layer   1
 -1  1  1  1  1  1  1  1  1  1  1  1  1  1  1  1  1  1  1  1  1  1  1  1  1
  1  1  1  1  1  1  1  1  1  1  1  1  1  1  1  1  1  1  1  1  1  1  1  1  1
  1  1  1  1  1  1  1  1  1  1  1  1  1  1  1  1  1  1  1  1  1  1  1  1  1
  1  1  1  1  1  1  1  1  1  1  1  1  1  1  1  1  1  1  1  1  1  1  1  1  1
 -1
 -1  1  1  1  1  1  1  1  1  1  1  1  1  1  1  1  1  1  1  1  1  1  1  1  1
  1  1  1  1  1  1  1  1  1  1  1  1  1  1  1  1  1  1  1  1  1  1  1  1  1
  1  1  1  1  1  1  1  1  1  1  1  1  1  1  1  1  1  1  1  1  1  1  1  1  1
  1  1  1  1  1  1  1  1  1  1  1  1  1  1  1  1  1  1  1  1  1  1  1  1  1
 -1
         1         1(25I3)                       0     IBOUND Layer   2
 -1  1  1  1  1  1  1  1  1  1  1  1  1  1  1  1  1  1  1  1  1  1  1  1  1
  1  1  1  1  1  1  1  1  1  1  1  1  1  1  1  1  1  1  1  1  1  1  1  1  1
  1  1  1  1  1  1  1  1  1  1  1  1  1  1  1  1  1  1  1  1  1  1  1  1  1
  1  1  1  1  1  1  1  1  1  1  1  1  1  1  1  1  1  1  1  1  1  1  1  1  1
 -1
 -1  1  1  1  1  1  1  1  1  1  1  1  1  1  1  1  1  1  1  1  1  1  1  1  1
  1  1  1  1  1  1  1  1  1  1  1  1  1  1  1  1  1  1  1  1  1  1  1  1  1
  1  1  1  1  1  1  1  1  1  1  1  1  1  1  1  1  1  1  1  1  1  1  1  1  1
  1  1  1  1  1  1  1  1  1  1  1  1  1  1  1  1  1  1  1  1  1  1  1  1  1
 -1
9.9900e+02
         1     1.000(10e12.4)                    0     STARTING HEADS Layer   1
  1.1000e+03  1.0000e+02  1.0000e+02  1.0000e+02  1.0000e+02  1.0000e+02  1.0000e+02  1.0000e+02  1.0000e+02  1.0000e+02
  1.0000e+02  1.0000e+02  1.0000e+02  1.0000e+02  1.0000e+02  1.0000e+02  1.0000e+02  1.0000e+02  1.0000e+02  1.0000e+02
  1.0000e+02  1.0000e+02  1.0000e+02  1.0000e+02  1.0000e+02  1.0000e+02  1.0000e+02  1.0000e+02  1.0000e+02  1.0000e+02
  1.0000e+02  1.0000e+02  1.0000e+02  1.0000e+02  1.0000e+02  1.0000e+02  1.0000e+02  1.0000e+02  1.0000e+02  1.0000e+02
  1.0000e+02  1.0000e+02  1.0000e+02  1.0000e+02  1.0000e+02  1.0000e+02  1.0000e+02  1.0000e+02  1.0000e+02  1.0000e+02
  1.0000e+02  1.0000e+02  1.0000e+02  1.0000e+02  1.0000e+02  1.0000e+02  1.0000e+02  1.0000e+02  1.0000e+02  1.0000e+02
  1.0000e+02  1.0000e+02  1.0000e+02  1.0000e+02  1.0000e+02  1.0000e+02  1.0000e+02  1.0000e+02  1.0000e+02  1.0000e+02
  1.0000e+02  1.0000e+02  1.0000e+02  1.0000e+02  1.0000e+02  1.0000e+02  1.0000e+02  1.0000e+02  1.0000e+02  1.0000e+02
  1.0000e+02  1.0000e+02  1.0000e+02  1.0000e+02  1.0000e+02  1.0000e+02  1.0000e+02  1.0000e+02  1.0000e+02  1.0000e+02
  1.0000e+02  1.0000e+02  1.0000e+02  1.0000e+02  1.0000e+02  1.0000e+02  1.0000e+02  1.0000e+02  1.0000e+02  1.0000e+02
  1.0000e+02
  1.1000e+03  1.0000e+02  1.0000e+02  1.0000e+02  1.0000e+02  1.0000e+02  1.0000e+02  1.0000e+02  1.0000e+02  1.0000e+02
  1.0000e+02  1.0000e+02  1.0000e+02  1.0000e+02  1.0000e+02  1.0000e+02  1.0000e+02  1.0000e+02  1.0000e+02  1.0000e+02
  1.0000e+02  1.0000e+02  1.0000e+02  1.0000e+02  1.0000e+02  1.0000e+02  1.0000e+02  1.0000e+02  1.0000e+02  1.0000e+02
  1.0000e+02  1.0000e+02  1.0000e+02  1.0000e+02  1.0000e+02  1.0000e+02  1.0000e+02  1.0000e+02  1.0000e+02  1.0000e+02
  1.0000e+02  1.0000e+02  1.0000e+02  1.0000e+02  1.0000e+02  1.0000e+02  1.0000e+02  1.0000e+02  1.0000e+02  1.0000e+02
  1.0000e+02  1.0000e+02  1.0000e+02  1.0000e+02  1.0000e+02  1.0000e+02  1.0000e+02  1.0000e+02  1.0000e+02  1.0000e+02
  1.0000e+02  1.0000e+02  1.0000e+02  1.0000e+02  1.0000e+02  1.0000e+02  1.0000e+02  1.0000e+02  1.0000e+02  1.0000e+02
  1.0000e+02  1.0000e+02  1.0000e+02  1.0000e+02  1.0000e+02  1.0000e+02  1.0000e+02  1.0000e+02  1.0000e+02  1.0000e+02
  1.0000e+02  1.0000e+02  1.0000e+02  1.0000e+02  1.0000e+02  1.0000e+02  1.0000e+02  1.0000e+02  1.0000e+02  1.0000e+02
  1.0000e+02  1.0000e+02  1.0000e+02  1.0000e+02  1.0000e+02  1.0000e+02  1.0000e+02  1.0000e+02  1.0000e+02  1.0000e+02
  1.0000e+02
         1     1.000(10e12.4)                    0     STARTING HEADS Layer   2
  1.1000e+03  1.0000e+02  1.0000e+02  1.0000e+02  1.0000e+02  1.0000e+02  1.0000e+02  1.0000e+02  1.0000e+02  1.0000e+02
  1.0000e+02  1.0000e+02  1.0000e+02  1.0000e+02  1.0000e+02  1.0000e+02  1.0000e+02  1.0000e+02  1.0000e+02  1.0000e+02
  1.0000e+02  1.0000e+02  1.0000e+02  1.0000e+02  1.0000e+02  1.0000e+02  1.0000e+02  1.0000e+02  1.0000e+02  1.0000e+02
  1.0000e+02  1.0000e+02  1.0000e+02  1.0000e+02  1.0000e+02  1.0000e+02  1.0000e+02  1.0000e+02  1.0000e+02  1.0000e+02
  1.0000e+02  1.0000e+02  1.0000e+02  1.0000e+02  1.0000e+02  1.0000e+02  1.0000e+02  1.0000e+02  1.0000e+02  1.0000e+02
  1.0000e+02  1.0000e+02  1.0000e+02  1.0000e+02  1.0000e+02  1.0000e+02  1.0000e+02  1.0000e+02  1.0000e+02  1.0000e+02
  1.0000e+02  1.0000e+02  1.0000e+02  1.0000e+02  1.0000e+02  1.0000e+02  1.0000e+02  1.0000e+02  1.0000e+02  1.0000e+02
  1.0000e+02  1.0000e+02  1.0000e+02  1.0000e+02  1.0000e+02  1.0000e+02  1.0000e+02  1.0000e+02  1.0000e+02  1.0000e+02
  1.0000e+02  1.0000e+02  1.0000e+02  1.0000e+02  1.0000e+02  1.0000e+02  1.0000e+02  1.0000e+02  1.0000e+02  1.0000e+02
  1.0000e+02  1.0000e+02  1.0000e+02  1.0000e+02  1.0000e+02  1.0000e+02  1.0000e+02  1.0000e+02  1.0000e+02  1.0000e+02
  1.0000e+02
  1.1000e+03  1.0000e+02  1.0000e+02  1.0000e+02  1.0000e+02  1.0000e+02  1.0000e+02  1.0000e+02  1.0000e+02  1.0000e+02
  1.0000e+02  1.0000e+02  1.0000e+02  1.0000e+02  1.0000e+02  1.0000e+02  1.0000e+02  1.0000e+02  1.0000e+02  1.0000e+02
  1.0000e+02  1.0000e+02  1.0000e+02  1.0000e+02  1.0000e+02  1.0000e+02  1.0000e+02  1.0000e+02  1.0000e+02  1.0000e+02
  1.0000e+02  1.0000e+02  1.0000e+02  1.0000e+02  1.0000e+02  1.0000e+02  1.0000e+02  1.0000e+02  1.0000e+02  1.0000e+02
  1.0000e+02  1.0000e+02  1.0000e+02  1.0000e+02  1.0000e+02  1.0000e+02  1.0000e+02  1.0000e+02  1.0000e+02  1.0000e+02
  1.0000e+02  1.0000e+02  1.0000e+02  1.0000e+02  1.0000e+02  1.0000e+02  1.0000e+02  1.0000e+02  1.0000e+02  1.0000e+02
  1.0000e+02  1.0000e+02  1.0000e+02  1.0000e+02  1.0000e+02  1.0000e+02  1.0000e+02  1.0000e+02  1.0000e+02  1.0000e+02
  1.0000e+02  1.0000e+02  1.0000e+02  1.0000e+02  1.0000e+02  1.0000e+02  1.0000e+02  1.0000e+02  1.0000e+02  1.0000e+02
  1.0000e+02  1.0000e+02  1.0000e+02  1.0000e+02  1.0000e+02  1.0000e+02  1.0000e+02  1.0000e+02  1.0000e+02  1.0000e+02
  1.0000e+02  1.0000e+02  1.0000e+02  1.0000e+02  1.0000e+02  1.0000e+02  1.0000e+02  1.0000e+02  1.0000e+02  1.0000e+02
  1.0000e+02
