# MODFLOW-USGs PCB package
         8         0
         8
         2         1         1         1 1.000e+00
         2         2         1         1 1.000e+00
         1         1         1         1 1.000e+00
         1         2         1         1 1.000e+00
         2         1       101         1 0.000e+00
         2         2       101         1 0.000e+00
         1         1       101         1 0.000e+00
         1         2       101         1 0.000e+00

