MODPATH_ENDPOINT_FILE 6 0                                                       
 1         48         48         48   0.209999984375000E+06
         0          0         48          0          0          0
         2
PG01            
PG02            
END HEADER
          1     1  2   0.000000000000000E+00   0.292739396574541E+05  1    1    5    5 6          1   0.9990000E+00   0.5000000E+00   0.1000000E+01   0.199960000000000E+04   0.820000000000000E+04   0.338757263183594E+03  1    5   13   13 4          2   0.9305581E+00   0.1000000E+01   0.5425950E+00   0.517222322760784E+04   0.520000000000000E+04   0.542594962141559E+02 PG01-1
          2     1  2   0.000000000000000E+00   0.316826972722511E+05  1    1    5    5 6          1   0.8530000E+00   0.8530000E+00   0.1000000E+01   0.194120000000000E+04   0.834120000000000E+04   0.338757263183594E+03  1    5   13   13 4          2   0.9944890E+00   0.1000000E+01   0.4810241E+00   0.519779558614785E+04   0.520000000000000E+04   0.481024065581040E+02 PG01-2
          3     1  2   0.000000000000000E+00   0.332448989943037E+05  1    1    5    5 6          1   0.5000000E+00   0.9990000E+00   0.1000000E+01   0.180000000000000E+04   0.839960000000000E+04   0.338757263183594E+03  1    5   13   13 4          2   0.9936445E+00   0.1000000E+01   0.4394540E+00   0.519745779644437E+04   0.520000000000000E+04   0.439454042706257E+02 PG01-3
          4     1  2   0.000000000000000E+00   0.330049980556619E+05  1    1    5    5 6          1   0.1470000E+00   0.8530000E+00   0.1000000E+01   0.165880000000000E+04   0.834120000000000E+04   0.338757263183594E+03  1    5   13   13 4          2   0.9260747E+00   0.1000000E+01   0.4350989E+00   0.517042988255671E+04   0.520000000000000E+04   0.435098922790043E+02 PG01-4
          5     1  2   0.000000000000000E+00   0.312068379488863E+05  1    1    5    5 6          1   0.1000000E-02   0.5000000E+00   0.1000000E+01   0.160040000000000E+04   0.820000000000000E+04   0.338757263183594E+03  1    5   13   13 4          2   0.8351147E+00   0.1000000E+01   0.4399773E+00   0.513404588489431E+04   0.520000000000000E+04   0.439977344642015E+02 PG01-5
          6     1  2   0.000000000000000E+00   0.287329911886909E+05  1    1    5    5 6          1   0.1470000E+00   0.1470000E+00   0.1000000E+01   0.165880000000000E+04   0.805880000000000E+04   0.338757263183594E+03  1    5   13   13 4          2   0.7722310E+00   0.1000000E+01   0.4648463E+00   0.510889239286913E+04   0.520000000000000E+04   0.464846256286980E+02 PG01-6
          7     1  2   0.000000000000000E+00   0.271968174267980E+05  1    1    5    5 6          1   0.5000000E+00   0.1000000E-02   0.1000000E+01   0.180000000000000E+04   0.800040000000000E+04   0.338757263183594E+03  1    5   13   13 4          2   0.7772510E+00   0.1000000E+01   0.5098383E+00   0.511090040308045E+04   0.520000000000000E+04   0.509838284138532E+02 PG01-7
          8     1  2   0.000000000000000E+00   0.275276994611827E+05  1    1    5    5 6          1   0.8530000E+00   0.1470000E+00   0.1000000E+01   0.194120000000000E+04   0.805880000000000E+04   0.338757263183594E+03  1    5   13   13 4          2   0.8447032E+00   0.1000000E+01   0.5543930E+00   0.513788127187637E+04   0.520000000000000E+04   0.554393046501907E+02 PG01-8
          9     2  2   0.000000000000000E+00   0.170721604613468E+05  1    1    8    8 6          1   0.9990000E+00   0.5000000E+00   0.1000000E+01   0.319960000000000E+04   0.700000000000000E+04   0.338058044433594E+03  1    5   13   13 6          2   0.8776924E+00   0.9579125E+00   0.1000000E+01   0.515107697827454E+04   0.518316499536902E+04   0.100000000000000E+03 PG02-1
         10     2  2   0.000000000000000E+00   0.180097211408439E+05  1    1    8    8 6          1   0.8530000E+00   0.8530000E+00   0.1000000E+01   0.314120000000000E+04   0.714120000000000E+04   0.338058044433594E+03  1    5   13   13 6          2   0.9104097E+00   0.9806645E+00   0.1000000E+01   0.516416386867191E+04   0.519226579404340E+04   0.100000000000000E+03 PG02-2
         11     2  2   0.000000000000000E+00   0.178372887314569E+05  1    1    8    8 6          1   0.5000000E+00   0.9990000E+00   0.1000000E+01   0.300000000000000E+04   0.719960000000000E+04   0.338058044433594E+03  1    5   13   13 4          2   0.8662838E+00   0.1000000E+01   0.9640121E+00   0.514651351236512E+04   0.520000000000000E+04   0.964012065578300E+02 PG02-3
         12     2  2   0.000000000000000E+00   0.172125161012490E+05  1    1    8    8 6          1   0.1470000E+00   0.8530000E+00   0.1000000E+01   0.285880000000000E+04   0.714120000000000E+04   0.338058044433594E+03  1    5   13   13 4          2   0.7784940E+00   0.1000000E+01   0.9247587E+00   0.511139761672540E+04   0.520000000000000E+04   0.924758701014994E+02 PG02-4
         13     2  2   0.000000000000000E+00   0.165456558306480E+05  1    1    8    8 6          1   0.1000000E-02   0.5000000E+00   0.1000000E+01   0.280040000000000E+04   0.700000000000000E+04   0.338058044433594E+03  1    5   13   13 4          2   0.7022263E+00   0.1000000E+01   0.9559419E+00   0.508089053416445E+04   0.520000000000000E+04   0.955941895027968E+02 PG02-5
         14     2  2   0.000000000000000E+00   0.158228486443367E+05  1    1    8    8 6          1   0.1470000E+00   0.1470000E+00   0.1000000E+01   0.285880000000000E+04   0.685880000000000E+04   0.338058044433594E+03  1    5   13   13 6          2   0.6894105E+00   0.9971468E+00   0.1000000E+01   0.507576421220275E+04   0.519885872157103E+04   0.100000000000000E+03 PG02-6
         15     2  2   0.000000000000000E+00   0.152733169753841E+05  1    1    8    8 6          1   0.5000000E+00   0.1000000E-02   0.1000000E+01   0.300000000000000E+04   0.680040000000000E+04   0.338058044433594E+03  1    5   13   13 6          2   0.7212160E+00   0.9661963E+00   0.1000000E+01   0.508848640693550E+04   0.518647852762933E+04   0.100000000000000E+03 PG02-7
         16     2  2   0.000000000000000E+00   0.156961071396406E+05  1    1    8    8 6          1   0.8530000E+00   0.1470000E+00   0.1000000E+01   0.314120000000000E+04   0.685880000000000E+04   0.338058044433594E+03  1    5   13   13 6          2   0.8084588E+00   0.9680729E+00   0.1000000E+01   0.512338352317121E+04   0.518722916823516E+04   0.100000000000000E+03 PG02-8
         17     2  2   0.100000000000000E+03   0.171721604613468E+05  1    1    8    8 6          1   0.9990000E+00   0.5000000E+00   0.1000000E+01   0.319960000000000E+04   0.700000000000000E+04   0.338058044433594E+03  1    5   13   13 6          2   0.8776924E+00   0.9579125E+00   0.1000000E+01   0.515107697827454E+04   0.518316499536902E+04   0.100000000000000E+03 PG02-1
         18     2  2   0.100000000000000E+03   0.181097211408438E+05  1    1    8    8 6          1   0.8530000E+00   0.8530000E+00   0.1000000E+01   0.314120000000000E+04   0.714120000000000E+04   0.338058044433594E+03  1    5   13   13 6          2   0.9104097E+00   0.9806645E+00   0.1000000E+01   0.516416386867191E+04   0.519226579404340E+04   0.100000000000000E+03 PG02-2
         19     2  2   0.100000000000000E+03   0.179372887314570E+05  1    1    8    8 6          1   0.5000000E+00   0.9990000E+00   0.1000000E+01   0.300000000000000E+04   0.719960000000000E+04   0.338058044433594E+03  1    5   13   13 4          2   0.8662838E+00   0.1000000E+01   0.9640121E+00   0.514651351236513E+04   0.520000000000000E+04   0.964012065578301E+02 PG02-3
         20     2  2   0.100000000000000E+03   0.173125161012490E+05  1    1    8    8 6          1   0.1470000E+00   0.8530000E+00   0.1000000E+01   0.285880000000000E+04   0.714120000000000E+04   0.338058044433594E+03  1    5   13   13 4          2   0.7784940E+00   0.1000000E+01   0.9247587E+00   0.511139761672540E+04   0.520000000000000E+04   0.924758701014991E+02 PG02-4
         21     2  2   0.100000000000000E+03   0.166456558306481E+05  1    1    8    8 6          1   0.1000000E-02   0.5000000E+00   0.1000000E+01   0.280040000000000E+04   0.700000000000000E+04   0.338058044433594E+03  1    5   13   13 4          2   0.7022263E+00   0.1000000E+01   0.9559419E+00   0.508089053416445E+04   0.520000000000000E+04   0.955941895027963E+02 PG02-5
         22     2  2   0.100000000000000E+03   0.159228486443367E+05  1    1    8    8 6          1   0.1470000E+00   0.1470000E+00   0.1000000E+01   0.285880000000000E+04   0.685880000000000E+04   0.338058044433594E+03  1    5   13   13 6          2   0.6894105E+00   0.9971468E+00   0.1000000E+01   0.507576421220276E+04   0.519885872157103E+04   0.100000000000000E+03 PG02-6
         23     2  2   0.100000000000000E+03   0.153733169753841E+05  1    1    8    8 6          1   0.5000000E+00   0.1000000E-02   0.1000000E+01   0.300000000000000E+04   0.680040000000000E+04   0.338058044433594E+03  1    5   13   13 6          2   0.7212160E+00   0.9661963E+00   0.1000000E+01   0.508848640693550E+04   0.518647852762933E+04   0.100000000000000E+03 PG02-7
         24     2  2   0.100000000000000E+03   0.157961071396405E+05  1    1    8    8 6          1   0.8530000E+00   0.1470000E+00   0.1000000E+01   0.314120000000000E+04   0.685880000000000E+04   0.338058044433594E+03  1    5   13   13 6          2   0.8084588E+00   0.9680729E+00   0.1000000E+01   0.512338352317121E+04   0.518722916823516E+04   0.100000000000000E+03 PG02-8
         25     2  2   0.250000000000000E+03   0.173221604613468E+05  1    1    8    8 6          1   0.9990000E+00   0.5000000E+00   0.1000000E+01   0.319960000000000E+04   0.700000000000000E+04   0.338058044433594E+03  1    5   13   13 6          2   0.8776924E+00   0.9579125E+00   0.1000000E+01   0.515107697827454E+04   0.518316499536902E+04   0.100000000000000E+03 PG02-1
         26     2  2   0.250000000000000E+03   0.182597211408439E+05  1    1    8    8 6          1   0.8530000E+00   0.8530000E+00   0.1000000E+01   0.314120000000000E+04   0.714120000000000E+04   0.338058044433594E+03  1    5   13   13 6          2   0.9104097E+00   0.9806645E+00   0.1000000E+01   0.516416386867191E+04   0.519226579404340E+04   0.100000000000000E+03 PG02-2
         27     2  2   0.250000000000000E+03   0.180872887314571E+05  1    1    8    8 6          1   0.5000000E+00   0.9990000E+00   0.1000000E+01   0.300000000000000E+04   0.719960000000000E+04   0.338058044433594E+03  1    5   13   13 4          2   0.8662838E+00   0.1000000E+01   0.9640121E+00   0.514651351236513E+04   0.520000000000000E+04   0.964012065578300E+02 PG02-3
         28     2  2   0.250000000000000E+03   0.174625161012490E+05  1    1    8    8 6          1   0.1470000E+00   0.8530000E+00   0.1000000E+01   0.285880000000000E+04   0.714120000000000E+04   0.338058044433594E+03  1    5   13   13 4          2   0.7784940E+00   0.1000000E+01   0.9247587E+00   0.511139761672540E+04   0.520000000000000E+04   0.924758701014995E+02 PG02-4
         29     2  2   0.250000000000000E+03   0.167956558306481E+05  1    1    8    8 6          1   0.1000000E-02   0.5000000E+00   0.1000000E+01   0.280040000000000E+04   0.700000000000000E+04   0.338058044433594E+03  1    5   13   13 4          2   0.7022263E+00   0.1000000E+01   0.9559419E+00   0.508089053416445E+04   0.520000000000000E+04   0.955941895027964E+02 PG02-5
         30     2  2   0.250000000000000E+03   0.160728486443367E+05  1    1    8    8 6          1   0.1470000E+00   0.1470000E+00   0.1000000E+01   0.285880000000000E+04   0.685880000000000E+04   0.338058044433594E+03  1    5   13   13 6          2   0.6894105E+00   0.9971468E+00   0.1000000E+01   0.507576421220275E+04   0.519885872157103E+04   0.100000000000000E+03 PG02-6
         31     2  2   0.250000000000000E+03   0.155233169753841E+05  1    1    8    8 6          1   0.5000000E+00   0.1000000E-02   0.1000000E+01   0.300000000000000E+04   0.680040000000000E+04   0.338058044433594E+03  1    5   13   13 6          2   0.7212160E+00   0.9661963E+00   0.1000000E+01   0.508848640693550E+04   0.518647852762933E+04   0.100000000000000E+03 PG02-7
         32     2  2   0.250000000000000E+03   0.159461071396406E+05  1    1    8    8 6          1   0.8530000E+00   0.1470000E+00   0.1000000E+01   0.314120000000000E+04   0.685880000000000E+04   0.338058044433594E+03  1    5   13   13 6          2   0.8084588E+00   0.9680729E+00   0.1000000E+01   0.512338352317121E+04   0.518722916823516E+04   0.100000000000000E+03 PG02-8
         33     2  2   0.500000000000000E+03   0.175721604613470E+05  1    1    8    8 6          1   0.9990000E+00   0.5000000E+00   0.1000000E+01   0.319960000000000E+04   0.700000000000000E+04   0.338058044433594E+03  1    5   13   13 6          2   0.8776924E+00   0.9579125E+00   0.1000000E+01   0.515107697827455E+04   0.518316499536902E+04   0.100000000000000E+03 PG02-1
         34     2  2   0.500000000000000E+03   0.185097211408438E+05  1    1    8    8 6          1   0.8530000E+00   0.8530000E+00   0.1000000E+01   0.314120000000000E+04   0.714120000000000E+04   0.338058044433594E+03  1    5   13   13 6          2   0.9104097E+00   0.9806645E+00   0.1000000E+01   0.516416386867191E+04   0.519226579404340E+04   0.100000000000000E+03 PG02-2
         35     2  2   0.500000000000000E+03   0.183372887314569E+05  1    1    8    8 6          1   0.5000000E+00   0.9990000E+00   0.1000000E+01   0.300000000000000E+04   0.719960000000000E+04   0.338058044433594E+03  1    5   13   13 4          2   0.8662838E+00   0.1000000E+01   0.9640121E+00   0.514651351236512E+04   0.520000000000000E+04   0.964012065578300E+02 PG02-3
         36     2  2   0.500000000000000E+03   0.177125161012490E+05  1    1    8    8 6          1   0.1470000E+00   0.8530000E+00   0.1000000E+01   0.285880000000000E+04   0.714120000000000E+04   0.338058044433594E+03  1    5   13   13 4          2   0.7784940E+00   0.1000000E+01   0.9247587E+00   0.511139761672540E+04   0.520000000000000E+04   0.924758701014994E+02 PG02-4
         37     2  2   0.500000000000000E+03   0.170456558306480E+05  1    1    8    8 6          1   0.1000000E-02   0.5000000E+00   0.1000000E+01   0.280040000000000E+04   0.700000000000000E+04   0.338058044433594E+03  1    5   13   13 4          2   0.7022263E+00   0.1000000E+01   0.9559419E+00   0.508089053416445E+04   0.520000000000000E+04   0.955941895027966E+02 PG02-5
         38     2  2   0.500000000000000E+03   0.163228486443367E+05  1    1    8    8 6          1   0.1470000E+00   0.1470000E+00   0.1000000E+01   0.285880000000000E+04   0.685880000000000E+04   0.338058044433594E+03  1    5   13   13 6          2   0.6894105E+00   0.9971468E+00   0.1000000E+01   0.507576421220275E+04   0.519885872157103E+04   0.100000000000000E+03 PG02-6
         39     2  2   0.500000000000000E+03   0.157733169753841E+05  1    1    8    8 6          1   0.5000000E+00   0.1000000E-02   0.1000000E+01   0.300000000000000E+04   0.680040000000000E+04   0.338058044433594E+03  1    5   13   13 6          2   0.7212160E+00   0.9661963E+00   0.1000000E+01   0.508848640693550E+04   0.518647852762933E+04   0.100000000000000E+03 PG02-7
         40     2  2   0.500000000000000E+03   0.161961071396406E+05  1    1    8    8 6          1   0.8530000E+00   0.1470000E+00   0.1000000E+01   0.314120000000000E+04   0.685880000000000E+04   0.338058044433594E+03  1    5   13   13 6          2   0.8084588E+00   0.9680729E+00   0.1000000E+01   0.512338352317121E+04   0.518722916823516E+04   0.100000000000000E+03 PG02-8
         41     2  2   0.850000000000000E+03   0.179221604613469E+05  1    1    8    8 6          1   0.9990000E+00   0.5000000E+00   0.1000000E+01   0.319960000000000E+04   0.700000000000000E+04   0.338058044433594E+03  1    5   13   13 6          2   0.8776924E+00   0.9579125E+00   0.1000000E+01   0.515107697827454E+04   0.518316499536902E+04   0.100000000000000E+03 PG02-1
         42     2  2   0.850000000000000E+03   0.188597211408438E+05  1    1    8    8 6          1   0.8530000E+00   0.8530000E+00   0.1000000E+01   0.314120000000000E+04   0.714120000000000E+04   0.338058044433594E+03  1    5   13   13 6          2   0.9104097E+00   0.9806645E+00   0.1000000E+01   0.516416386867191E+04   0.519226579404340E+04   0.100000000000000E+03 PG02-2
         43     2  2   0.850000000000000E+03   0.186872887314570E+05  1    1    8    8 6          1   0.5000000E+00   0.9990000E+00   0.1000000E+01   0.300000000000000E+04   0.719960000000000E+04   0.338058044433594E+03  1    5   13   13 4          2   0.8662838E+00   0.1000000E+01   0.9640121E+00   0.514651351236513E+04   0.520000000000000E+04   0.964012065578300E+02 PG02-3
         44     2  2   0.850000000000000E+03   0.180625161012489E+05  1    1    8    8 6          1   0.1470000E+00   0.8530000E+00   0.1000000E+01   0.285880000000000E+04   0.714120000000000E+04   0.338058044433594E+03  1    5   13   13 4          2   0.7784940E+00   0.1000000E+01   0.9247587E+00   0.511139761672540E+04   0.520000000000000E+04   0.924758701014995E+02 PG02-4
         45     2  2   0.850000000000000E+03   0.173956558306480E+05  1    1    8    8 6          1   0.1000000E-02   0.5000000E+00   0.1000000E+01   0.280040000000000E+04   0.700000000000000E+04   0.338058044433594E+03  1    5   13   13 4          2   0.7022263E+00   0.1000000E+01   0.9559419E+00   0.508089053416445E+04   0.520000000000000E+04   0.955941895027968E+02 PG02-5
         46     2  2   0.850000000000000E+03   0.166728486443367E+05  1    1    8    8 6          1   0.1470000E+00   0.1470000E+00   0.1000000E+01   0.285880000000000E+04   0.685880000000000E+04   0.338058044433594E+03  1    5   13   13 6          2   0.6894105E+00   0.9971468E+00   0.1000000E+01   0.507576421220275E+04   0.519885872157103E+04   0.100000000000000E+03 PG02-6
         47     2  2   0.850000000000000E+03   0.161233169753841E+05  1    1    8    8 6          1   0.5000000E+00   0.1000000E-02   0.1000000E+01   0.300000000000000E+04   0.680040000000000E+04   0.338058044433594E+03  1    5   13   13 6          2   0.7212160E+00   0.9661963E+00   0.1000000E+01   0.508848640693550E+04   0.518647852762933E+04   0.100000000000000E+03 PG02-7
         48     2  2   0.850000000000000E+03   0.165461071396406E+05  1    1    8    8 6          1   0.8530000E+00   0.1470000E+00   0.1000000E+01   0.314120000000000E+04   0.685880000000000E+04   0.338058044433594E+03  1    5   13   13 6          2   0.8084588E+00   0.9680729E+00   0.1000000E+01   0.512338352317121E+04   0.518722916823516E+04   0.100000000000000E+03 PG02-8
