MODPATH_PATHLINE_FILE 6 0                                                       
 1   0.209999984375000E+06
END HEADER
         1     1     0    11   0.000000000000000E+00   0.180000000000000E+04   0.980000000000000E+04   0.338792938232422E+03    1    1    5  1  0.5000000E+00   0.5000000E+00   0.1000000E+01     1
         2     1     0    11   0.000000000000000E+00   0.180000000000000E+04   0.940000000000000E+04   0.338791625976562E+03    1    2    5  1  0.5000000E+00   0.5000000E+00   0.1000000E+01     1
         3     1     0    11   0.000000000000000E+00   0.180000000000000E+04   0.900000000000000E+04   0.338789062500000E+03    1    3    5  1  0.5000000E+00   0.5000000E+00   0.1000000E+01     1
         4     1     0    11   0.000000000000000E+00   0.180000000000000E+04   0.860000000000000E+04   0.338785369873047E+03    1    4    5  1  0.5000000E+00   0.5000000E+00   0.1000000E+01     1
         5     1     0    11   0.000000000000000E+00   0.180000000000000E+04   0.820000000000000E+04   0.338780761718750E+03    1    5    5  1  0.5000000E+00   0.5000000E+00   0.1000000E+01     1
         6     1     0    11   0.000000000000000E+00   0.180000000000000E+04   0.780000000000000E+04   0.338775421142578E+03    1    6    5  1  0.5000000E+00   0.5000000E+00   0.1000000E+01     1
         7     1     0    11   0.000000000000000E+00   0.180000000000000E+04   0.740000000000000E+04   0.338769653320312E+03    1    7    5  1  0.5000000E+00   0.5000000E+00   0.1000000E+01     1
         8     1     0    11   0.000000000000000E+00   0.180000000000000E+04   0.700000000000000E+04   0.338763824462891E+03    1    8    5  1  0.5000000E+00   0.5000000E+00   0.1000000E+01     1
         9     1     0    11   0.000000000000000E+00   0.180000000000000E+04   0.660000000000000E+04   0.338758300781250E+03    1    9    5  1  0.5000000E+00   0.5000000E+00   0.1000000E+01     1
        10     1     0    11   0.000000000000000E+00   0.180000000000000E+04   0.620000000000000E+04   0.338753448486328E+03    1   10    5  1  0.5000000E+00   0.5000000E+00   0.1000000E+01     1
        11     1     0    11   0.000000000000000E+00   0.180000000000000E+04   0.580000000000000E+04   0.338749664306641E+03    1   11    5  1  0.5000000E+00   0.5000000E+00   0.1000000E+01     1
        12     1     0    11   0.000000000000000E+00   0.180000000000000E+04   0.540000000000000E+04   0.338747253417969E+03    1   12    5  1  0.5000000E+00   0.5000000E+00   0.1000000E+01     1
        13     1     0    11   0.000000000000000E+00   0.180000000000000E+04   0.500000000000000E+04   0.338746429443359E+03    1   13    5  1  0.5000000E+00   0.5000000E+00   0.1000000E+01     1
        14     1     0    11   0.000000000000000E+00   0.180000000000000E+04   0.460000000000000E+04   0.338747253417969E+03    1   14    5  1  0.5000000E+00   0.5000000E+00   0.1000000E+01     1
        15     1     0    11   0.000000000000000E+00   0.180000000000000E+04   0.420000000000000E+04   0.338749664306641E+03    1   15    5  1  0.5000000E+00   0.5000000E+00   0.1000000E+01     1
        16     1     0    11   0.000000000000000E+00   0.180000000000000E+04   0.380000000000000E+04   0.338753448486328E+03    1   16    5  1  0.5000000E+00   0.5000000E+00   0.1000000E+01     1
        17     1     0    11   0.000000000000000E+00   0.180000000000000E+04   0.340000000000000E+04   0.338758300781250E+03    1   17    5  1  0.5000000E+00   0.5000000E+00   0.1000000E+01     1
        18     1     0    11   0.000000000000000E+00   0.180000000000000E+04   0.300000000000000E+04   0.338763824462891E+03    1   18    5  1  0.5000000E+00   0.5000000E+00   0.1000000E+01     1
        19     1     0    11   0.000000000000000E+00   0.180000000000000E+04   0.260000000000000E+04   0.338769653320312E+03    1   19    5  1  0.5000000E+00   0.5000000E+00   0.1000000E+01     1
        20     1     0    11   0.000000000000000E+00   0.180000000000000E+04   0.220000000000000E+04   0.338775390625000E+03    1   20    5  1  0.5000000E+00   0.5000000E+00   0.1000000E+01     1
        21     1     0    11   0.000000000000000E+00   0.180000000000000E+04   0.180000000000000E+04   0.338780731201172E+03    1   21    5  1  0.5000000E+00   0.5000000E+00   0.1000000E+01     1
        22     1     0    11   0.000000000000000E+00   0.180000000000000E+04   0.140000000000000E+04   0.338785369873047E+03    1   22    5  1  0.5000000E+00   0.5000000E+00   0.1000000E+01     1
        23     1     0    11   0.000000000000000E+00   0.180000000000000E+04   0.100000000000000E+04   0.338789062500000E+03    1   23    5  1  0.5000000E+00   0.5000000E+00   0.1000000E+01     1
        24     1     0    11   0.000000000000000E+00   0.180000000000000E+04   0.600000000000000E+03   0.338791595458984E+03    1   24    5  1  0.5000000E+00   0.5000000E+00   0.1000000E+01     1
        25     1     0    11   0.000000000000000E+00   0.180000000000000E+04   0.200000000000000E+03   0.338792907714844E+03    1   25    5  1  0.5000000E+00   0.5000000E+00   0.1000000E+01     1
         1     1     0    12   0.000000000000000E+00   0.180000000000000E+04   0.980000000000000E+04   0.338769439697266E+03    1    1    5  1  0.5000000E+00   0.5000000E+00   0.1000000E+01     2
         1     1    -1    12   0.278332706170031E+04   0.200000000000000E+04   0.979923760183619E+04   0.294864428120447E+03    1    1    6  1  0.0000000E+00   0.4980940E+00   0.3625236E+00     2
         1     1    -1    12   0.452716586793318E+04   0.213759051682762E+04   0.979870776987396E+04   0.270000000000000E+03    2    1    6  1  0.3439763E+00   0.4967694E+00   0.1000000E+01     2
         1     1    -1    12   0.754250092465486E+04   0.240000000000000E+04   0.979778492283823E+04   0.231180960941929E+03    2    1    7  1  0.0000000E+00   0.4944623E+00   0.2236192E+00     2
         1     1    -1    12   0.850989787592947E+04   0.249154924215276E+04   0.979745619995313E+04   0.220000000000000E+03    3    1    7  1  0.2288731E+00   0.4936405E+00   0.1000000E+01     2
         1     1    -1    12   0.102792914254430E+05   0.249157121524215E+04   0.979745592912592E+04   0.200000000000000E+03    4    1    7  1  0.2289280E+00   0.4936398E+00   0.1000000E+01     2
         1     1    -1    12   0.129593455527137E+05   0.280000000000000E+04   0.978426591868237E+04   0.171892260708611E+03    4    1    8  1  0.0000000E+00   0.4606648E+00   0.7189226E+00     2
         1     1    -1    12   0.161396424288309E+05   0.320000000000000E+04   0.976492349000859E+04   0.144358354903813E+03    4    1    9  1  0.0000000E+00   0.4123087E+00   0.4435835E+00     2
         1     1    -1    12   0.190823866868793E+05   0.360000000000000E+04   0.974284832442272E+04   0.123531579028358E+03    4    1   10  1  0.0000000E+00   0.3571208E+00   0.2353158E+00     2
         1     1    -1    12   0.218623936549567E+05   0.400000000000000E+04   0.971755087738317E+04   0.107311724674123E+03    4    1   11  1  0.0000000E+00   0.2938772E+00   0.7311725E-01     2
         1     1    -1    12   0.233351231934058E+05   0.421885912080275E+04   0.970198730303888E+04   0.100000000000000E+03    5    1   11  1  0.5471478E+00   0.2549683E+00   0.1000000E+01     2
         1     1    -1    12   0.245411563380146E+05   0.440000000000000E+04   0.968859315544903E+04   0.943859912735181E+02    5    1   12  1  0.0000000E+00   0.2214829E+00   0.9438599E+00     2
         1     1    -1    12   0.271634135692660E+05   0.480000000000000E+04   0.965576910550818E+04   0.839338485508827E+02    5    1   13  1  0.0000000E+00   0.1394228E+00   0.8393385E+00     2
         1     1    -1    12   0.297556935183117E+05   0.520000000000000E+04   0.961931405567315E+04   0.754527316797365E+02    5    1   14  1  0.0000000E+00   0.4828514E-01   0.7545273E+00     2
         1     1    -1    12   0.310508720130985E+05   0.540026092133572E+04   0.960000000000000E+04   0.719364296570549E+02    5    2   14  1  0.5006523E+00   0.1000000E+01   0.7193643E+00     2
         1     1    -1    12   0.323499481445233E+05   0.560000000000000E+04   0.957962717482561E+04   0.685692717239204E+02    5    2   15  1  0.0000000E+00   0.9490679E+00   0.6856927E+00     2
         1     1    -1    12   0.349742764712926E+05   0.600000000000000E+04   0.953732828729976E+04   0.630465772148245E+02    5    2   16  1  0.0000000E+00   0.8433207E+00   0.6304658E+00     2
         1     1    -1    12   0.376458528649571E+05   0.640000000000000E+04   0.949349740131333E+04   0.587614796778043E+02    5    2   17  1  0.0000000E+00   0.7337435E+00   0.5876148E+00     2
         1     1    -1    12   0.403871176056144E+05   0.680000000000000E+04   0.944920675924895E+04   0.556495401184358E+02    5    2   18  1  0.0000000E+00   0.6230169E+00   0.5564954E+00     2
         1     1    -1    12   0.432280780247172E+05   0.720000000000000E+04   0.940529851884052E+04   0.537253683309815E+02    5    2   19  1  0.0000000E+00   0.5132463E+00   0.5372537E+00     2
         1     1    -1    12   0.462139878357562E+05   0.760000000000000E+04   0.936216595676872E+04   0.531168181959763E+02    5    2   20  1  0.0000000E+00   0.4054149E+00   0.5311682E+00     2
         1     1    -1    12   0.494181582102008E+05   0.800000000000000E+04   0.931956749980310E+04   0.541534230028476E+02    5    2   21  1  0.0000000E+00   0.2989187E+00   0.5415342E+00     2
         1     1    -1    12   0.529677201601022E+05   0.840000000000000E+04   0.927637578825643E+04   0.575942234826098E+02    5    2   22  1  0.0000000E+00   0.1909395E+00   0.5759422E+00     2
         1     1    -1    12   0.571067418550862E+05   0.880000000000000E+04   0.922995208211092E+04   0.653096264488531E+02    5    2   23  1  0.0000000E+00   0.7488021E-01   0.6530963E+00     2
         1     1    -1    12   0.599811580959950E+05   0.903263638670073E+04   0.920000000000000E+04   0.743823269648223E+02    5    3   23  1  0.5815910E+00   0.1000000E+01   0.7438233E+00     2
         1     1    -1    12   0.624301709340503E+05   0.920000000000000E+04   0.917361923033998E+04   0.830912150264773E+02    5    3   24  1  0.0000000E+00   0.9340481E+00   0.8309122E+00     2
         1     1    -1    12   0.654356424343244E+05   0.937198916462467E+04   0.914315447484270E+04   0.100000000000000E+03    4    3   24  1  0.4299729E+00   0.8578862E+00   0.0000000E+00     2
         1     1    -1    12   0.703559572236008E+05   0.960000000000000E+04   0.909117109408887E+04   0.135504198746627E+03    4    3   25  1  0.0000000E+00   0.7279277E+00   0.3550420E+00     2
         1     1    -1    12   0.752018934916005E+05   0.974908620025567E+04   0.903990618204519E+04   0.200000000000000E+03    3    3   25  1  0.3727155E+00   0.5997655E+00   0.0000000E+00     2
         1     1    -1    12   0.764303350456845E+05   0.974916232191292E+04   0.903990584364626E+04   0.220000000000000E+03    2    3   25  1  0.3729058E+00   0.5997646E+00   0.0000000E+00     2
         1     1    -1    12   0.773054722823262E+05   0.997054394616195E+04   0.903986705314498E+04   0.270000000000000E+03    1    3   25  1  0.9263599E+00   0.5996676E+00   0.0000000E+00     2
         1     1    -1    12   0.775570345797231E+05   0.998517591144628E+04   0.903986284779680E+04   0.320140258789062E+03    1    3   25  1  0.9629398E+00   0.5996571E+00   0.1000000E+01     2
         2     1     0    12   0.000000000000000E+00   0.180000000000000E+04   0.940000000000000E+04   0.338768127441406E+03    1    2    5  1  0.5000000E+00   0.5000000E+00   0.1000000E+01     2
         2     1    -1    12   0.278118433167303E+04   0.200000000000000E+04   0.939775438604549E+04   0.294892587789420E+03    1    2    6  1  0.0000000E+00   0.4943860E+00   0.3629419E+00     2
         2     1    -1    12   0.452660605248863E+04   0.213782672664986E+04   0.939618949184109E+04   0.270000000000000E+03    2    2    6  1  0.3445668E+00   0.4904737E+00   0.1000000E+01     2
         2     1    -1    12   0.753688226819418E+04   0.240000000000000E+04   0.939347065063784E+04   0.231230122407835E+03    2    2    7  1  0.0000000E+00   0.4836766E+00   0.2246024E+00     2
         2     1    -1    12   0.850790388917985E+04   0.249196434795635E+04   0.939249572265416E+04   0.220000000000000E+03    3    2    7  1  0.2299109E+00   0.4812393E+00   0.1000000E+01     2
         2     1    -1    12   0.102762454989101E+05   0.249198638087650E+04   0.939249491527285E+04   0.200000000000000E+03    4    2    7  1  0.2299660E+00   0.4812373E+00   0.1000000E+01     2
         2     1    -1    12   0.129216778784170E+05   0.280000000000000E+04   0.935360453711700E+04   0.172213554301190E+03    4    2    8  1  0.0000000E+00   0.3840113E+00   0.7221355E+00     2
         2     1    -1    12   0.160671448162111E+05   0.320000000000000E+04   0.929631371365922E+04   0.144887047867300E+03    4    2    9  1  0.0000000E+00   0.2407843E+00   0.4488705E+00     2
         2     1    -1    12   0.189809008203097E+05   0.360000000000000E+04   0.923060888133702E+04   0.124158158887216E+03    4    2   10  1  0.0000000E+00   0.7652220E-01   0.2415816E+00     2
         2     1    -1    12   0.201260919405317E+05   0.376392806281114E+04   0.920000000000000E+04   0.117155852313316E+03    4    3   10  1  0.4098202E+00   0.1000000E+01   0.1715585E+00     2
         2     1    -1    12   0.217121120707872E+05   0.400000000000000E+04   0.915552187172860E+04   0.108090448112045E+03    4    3   11  1  0.0000000E+00   0.8888047E+00   0.8090448E-01     2
         2     1    -1    12   0.233301590651229E+05   0.424554551248042E+04   0.910326707331912E+04   0.100000000000000E+03    5    3   11  1  0.6138638E+00   0.7581677E+00   0.1000000E+01     2
         2     1    -1    12   0.243411219285843E+05   0.440000000000000E+04   0.906885278150654E+04   0.952563718267686E+02    5    3   12  1  0.0000000E+00   0.6721320E+00   0.9525637E+00     2
         2     1    -1    12   0.269378968028934E+05   0.480000000000000E+04   0.896852432315724E+04   0.847664527420465E+02    5    3   13  1  0.0000000E+00   0.4213108E+00   0.8476645E+00     2
         2     1    -1    12   0.295302164115218E+05   0.520000000000000E+04   0.885467244390389E+04   0.761664069233453E+02    5    3   14  1  0.0000000E+00   0.1366811E+00   0.7616641E+00     2
         2     1    -1    12   0.307010091370060E+05   0.537975252892606E+04   0.880000000000000E+04   0.729357555847549E+02    5    4   14  1  0.4493813E+00   0.1000000E+01   0.7293576E+00     2
         2     1    -1    12   0.321649077004747E+05   0.560000000000000E+04   0.872751916959771E+04   0.690697033095039E+02    5    4   15  1  0.0000000E+00   0.8187979E+00   0.6906970E+00     2
         2     1    -1    12   0.348791330571365E+05   0.600000000000000E+04   0.858820102537019E+04   0.632753922931843E+02    5    4   16  1  0.0000000E+00   0.4705026E+00   0.6327539E+00     2
         2     1    -1    12   0.376746103178511E+05   0.640000000000000E+04   0.844219802808495E+04   0.587399676581746E+02    5    4   17  1  0.0000000E+00   0.1054951E+00   0.5873997E+00     2
         2     1    -1    12   0.385319561278974E+05   0.652017794618891E+04   0.840000000000000E+04   0.577374422276485E+02    5    5   17  1  0.3004449E+00   0.1000000E+01   0.5773744E+00     2
         2     1    -1    12   0.406687291318776E+05   0.680000000000000E+04   0.828956951182449E+04   0.552900426608986E+02    5    5   18  1  0.0000000E+00   0.7239238E+00   0.5529004E+00     2
         2     1    -1    12   0.438279976466232E+05   0.720000000000000E+04   0.813859196742494E+04   0.531075499965846E+02    5    5   19  1  0.0000000E+00   0.3464799E+00   0.5310755E+00     2
         2     1    -1    12   0.470393574291028E+05   0.758830315884851E+04   0.800000000000000E+04   0.524092136044582E+02    5    6   19  1  0.9707579E+00   0.1000000E+01   0.5240921E+00     2
         2     1    -1    12   0.471454901574492E+05   0.760000000000000E+04   0.799526652919594E+04   0.523853470211784E+02    5    6   20  1  0.0000000E+00   0.9881663E+00   0.5238535E+00     2
         2     1    -1    12   0.509001490615900E+05   0.800000000000000E+04   0.785280986256455E+04   0.535049265350509E+02    5    6   21  1  0.0000000E+00   0.6320247E+00   0.5350493E+00     2
         2     1    -1    12   0.549912485883490E+05   0.840000000000000E+04   0.771891133370357E+04   0.573619905311925E+02    5    6   22  1  0.0000000E+00   0.2972783E+00   0.5736199E+00     2
         2     1    -1    12   0.592002769235299E+05   0.876175073215991E+04   0.760000000000000E+04   0.651027353496855E+02    5    7   22  1  0.9043768E+00   0.1000000E+01   0.6510274E+00     2
         2     1    -1    12   0.597126864952268E+05   0.880000000000000E+04   0.758531832274888E+04   0.661099552031153E+02    5    7   23  1  0.0000000E+00   0.9632958E+00   0.6610996E+00     2
         2     1    -1    12   0.659294637918657E+05   0.920000000000000E+04   0.743199131112536E+04   0.873830050748617E+02    5    7   24  1  0.0000000E+00   0.5799783E+00   0.8738301E+00     2
         2     1    -1    12   0.681293910960718E+05   0.931421347998174E+04   0.738347700286394E+04   0.100000000000000E+03    4    7   24  1  0.2855337E+00   0.4586925E+00   0.0000000E+00     2
         2     1    -1    12   0.747991380111842E+05   0.960000000000000E+04   0.723607532296733E+04   0.150671398910573E+03    4    7   25  1  0.0000000E+00   0.9018831E-01   0.5067140E+00     2
         2     1    -1    12   0.765351642514454E+05   0.965560409003561E+04   0.720000000000000E+04   0.173097013643684E+03    4    8   25  1  0.1390102E+00   0.1000000E+01   0.7309701E+00     2
         2     1    -1    12   0.783277338607607E+05   0.970307452530122E+04   0.716283158397224E+04   0.200000000000000E+03    3    8   25  1  0.2576863E+00   0.9070790E+00   0.0000000E+00     2
         2     1    -1    12   0.795629113425406E+05   0.970316476660805E+04   0.716283093479601E+04   0.220000000000000E+03    2    8   25  1  0.2579119E+00   0.9070773E+00   0.0000000E+00     2
         2     1    -1    12   0.804412158779269E+05   0.996523747094976E+04   0.716275607204829E+04   0.270000000000000E+03    1    8   25  1  0.9130937E+00   0.9068902E+00   0.0000000E+00     2
         2     1    -1    12   0.806934323456624E+05   0.998250777708701E+04   0.716274801054144E+04   0.320139923095703E+03    1    8   25  1  0.9562694E+00   0.9068700E+00   0.1000000E+01     2
         3     1     0    12   0.000000000000000E+00   0.180000000000000E+04   0.900000000000000E+04   0.338765563964844E+03    1    3    5  1  0.5000000E+00   0.5000000E+00   0.1000000E+01     2
         3     1    -1    12   0.277694145658719E+04   0.200000000000000E+04   0.899638492599978E+04   0.294948044889630E+03    1    3    6  1  0.0000000E+00   0.4909623E+00   0.3637655E+00     2
         3     1    -1    12   0.452542520251485E+04   0.213828987175510E+04   0.899385165097673E+04   0.270000000000000E+03    2    3    6  1  0.3457247E+00   0.4846291E+00   0.1000000E+01     2
         3     1    -1    12   0.752573877267973E+04   0.240000000000000E+04   0.898947315511265E+04   0.231326049783832E+03    2    3    7  1  0.0000000E+00   0.4736829E+00   0.2265210E+00     2
         3     1    -1    12   0.850378611963183E+04   0.249277418055684E+04   0.898788230508244E+04   0.220000000000000E+03    3    3    7  1  0.2319355E+00   0.4697058E+00   0.1000000E+01     2
         3     1    -1    12   0.102700264076988E+05   0.249279633593731E+04   0.898788097713627E+04   0.200000000000000E+03    4    3    7  1  0.2319908E+00   0.4697024E+00   0.1000000E+01     2
         3     1    -1    12   0.128469905364930E+05   0.280000000000000E+04   0.892532952972289E+04   0.172851498188391E+03    4    3    8  1  0.0000000E+00   0.3133238E+00   0.7285150E+00     2
         3     1    -1    12   0.159225322659864E+05   0.320000000000000E+04   0.883236856165928E+04   0.145947669164358E+03    4    3    9  1  0.0000000E+00   0.8092140E-01   0.4594767E+00     2
         3     1    -1    12   0.168081874573295E+05   0.332142805368476E+04   0.880000000000000E+04   0.139244149145776E+03    4    4    9  1  0.3035701E+00   0.1000000E+01   0.3924415E+00     2
         3     1    -1    12   0.187160286746357E+05   0.360000000000000E+04   0.872709548991169E+04   0.125800623971226E+03    4    4   10  1  0.0000000E+00   0.8177387E+00   0.2580062E+00     2
         3     1    -1    12   0.213528976658273E+05   0.400000000000000E+04   0.860437722308160E+04   0.109986706409145E+03    4    4   11  1  0.0000000E+00   0.5109431E+00   0.9986706E-01     2
         3     1    -1    12   0.233254053907118E+05   0.430635577534353E+04   0.849402507060387E+04   0.100000000000000E+03    5    4   11  1  0.7658894E+00   0.2350627E+00   0.1000000E+01     2
         3     1    -1    12   0.239267757016455E+05   0.440000000000000E+04   0.845845763646005E+04   0.971403325180629E+02    5    4   12  1  0.0000000E+00   0.1461441E+00   0.9714033E+00     2
         3     1    -1    12   0.248260587973608E+05   0.454019742364871E+04   0.840000000000000E+04   0.932781267121000E+02    5    5   12  1  0.3504936E+00   0.1000000E+01   0.9327813E+00     2
         3     1    -1    12   0.264712638754953E+05   0.480000000000000E+04   0.828592138659059E+04   0.865677492157724E+02    5    5   13  1  0.0000000E+00   0.7148035E+00   0.8656775E+00     2
         3     1    -1    12   0.290639047243693E+05   0.520000000000000E+04   0.807956522875471E+04   0.776911014363887E+02    5    5   14  1  0.0000000E+00   0.1989131E+00   0.7769110E+00     2
         3     1    -1    12   0.299955911808280E+05   0.534028411209692E+04   0.800000000000000E+04   0.750257970973941E+02    5    6   14  1  0.3507103E+00   0.1000000E+01   0.7502580E+00     2
         3     1    -1    12   0.318171082158797E+05   0.560000000000000E+04   0.783107019057453E+04   0.700287444162578E+02    5    6   15  1  0.0000000E+00   0.5776755E+00   0.7002874E+00     2
         3     1    -1    12   0.342083817940120E+05   0.592488488005382E+04   0.760000000000000E+04   0.647362401382533E+02    5    7   15  1  0.8122122E+00   0.1000000E+01   0.6473624E+00     2
         3     1    -1    12   0.348401699282584E+05   0.600000000000000E+04   0.753360288749296E+04   0.633869723303891E+02    5    7   16  1  0.0000000E+00   0.8340072E+00   0.6338697E+00     2
         3     1    -1    12   0.381622649380538E+05   0.637970086708916E+04   0.720000000000000E+04   0.578521364496954E+02    5    8   16  1  0.9492522E+00   0.1000000E+01   0.5785214E+00     2
         3     1    -1    12   0.383857056102905E+05   0.640000000000000E+04   0.717569091788146E+04   0.574907432370859E+02    5    8   17  1  0.0000000E+00   0.9392273E+00   0.5749074E+00     2
         3     1    -1    12   0.423932068321478E+05   0.676018140259058E+04   0.680000000000000E+04   0.528044582366199E+02    5    9   17  1  0.9004535E+00   0.1000000E+01   0.5280446E+00     2
         3     1    -1    12   0.429964831002644E+05   0.680000000000000E+04   0.674025806123462E+04   0.521165649152883E+02    5    9   18  1  0.0000000E+00   0.8506452E+00   0.5211656E+00     2
         3     1    -1    12   0.474798903044968E+05   0.710611574195324E+04   0.640000000000000E+04   0.489829515004259E+02    5   10   18  1  0.7652894E+00   0.1000000E+01   0.4898295E+00     2
         3     1    -1    12   0.493478639077541E+05   0.720000000000000E+04   0.626084187383421E+04   0.476982126842800E+02    5   10   19  1  0.0000000E+00   0.6521047E+00   0.4769821E+00     2
         3     1    -1    12   0.545086932575324E+05   0.748615246891676E+04   0.600000000000000E+04   0.464353633930408E+02    5   11   19  1  0.7153812E+00   0.1000000E+01   0.4643536E+00     2
         3     1    -1    12   0.569553747947729E+05   0.760000000000000E+04   0.588788356328542E+04   0.458218227518140E+02    5   11   20  1  0.0000000E+00   0.7197089E+00   0.4582182E+00     2
         3     1    -1    12   0.644063321483939E+05   0.800000000000000E+04   0.567578233846717E+04   0.474898711679414E+02    5   11   21  1  0.0000000E+00   0.1894558E+00   0.4748987E+00     2
         3     1    -1    12   0.686129526106617E+05   0.824996991480026E+04   0.560000000000000E+04   0.508752309076484E+02    5   12   21  1  0.6249248E+00   0.1000000E+01   0.5087523E+00     2
         3     1    -1    12   0.712785403149508E+05   0.840000000000000E+04   0.555588617063134E+04   0.531342782384929E+02    5   12   22  1  0.0000000E+00   0.8897154E+00   0.5313428E+00     2
         3     1    -1    12   0.784774501600277E+05   0.880000000000000E+04   0.547420093228269E+04   0.657031312413258E+02    5   12   23  1  0.0000000E+00   0.6855023E+00   0.6570313E+00     2
         3     1    -1    12   0.867426742088706E+05   0.920000000000000E+04   0.540903654078930E+04   0.948902614626371E+02    5   12   24  1  0.0000000E+00   0.5225914E+00   0.9489026E+00     2
         3     1    -1    12   0.876034918842269E+05   0.923645961596514E+04   0.540366187670970E+04   0.100000000000000E+03    4   12   24  1  0.9114904E-01   0.5091547E+00   0.0000000E+00     2
         3     1    -1    12   0.975793009485574E+05   0.960000000000000E+04   0.534625146086612E+04   0.184039176286779E+03    4   12   25  1  0.0000000E+00   0.3656287E+00   0.8403918E+00     2
         3     1    -1    12   0.986129607451180E+05   0.962849396418073E+04   0.534120356264670E+04   0.200000000000000E+03    3   12   25  1  0.7123491E-01   0.3530089E+00   0.0000000E+00     2
         3     1    -1    12   0.998525273103169E+05   0.962860697299722E+04   0.534120340990630E+04   0.220000000000000E+03    2   12   25  1  0.7151743E-01   0.3530085E+00   0.0000000E+00     2
         3     1    -1    12   0.100732890820450E+06   0.995658278097570E+04   0.534118582108294E+04   0.270000000000000E+03    1   12   25  1  0.8914570E+00   0.3529646E+00   0.0000000E+00     2
         3     1    -1    12   0.100985531878953E+06   0.997815472358848E+04   0.534118392645695E+04   0.320139709472656E+03    1   12   25  1  0.9453868E+00   0.3529598E+00   0.1000000E+01     2
         4     1     0    12   0.000000000000000E+00   0.180000000000000E+04   0.860000000000000E+04   0.338761901855469E+03    1    4    5  1  0.5000000E+00   0.5000000E+00   0.1000000E+01     2
         4     1    -1    12   0.277065970490596E+04   0.200000000000000E+04   0.859519635249011E+04   0.295030407242809E+03    1    4    6  1  0.0000000E+00   0.4879909E+00   0.3649882E+00     2
         4     1    -1    12   0.452369274312479E+04   0.213898043194502E+04   0.859180192559872E+04   0.270000000000000E+03    2    4    6  1  0.3474511E+00   0.4795048E+00   0.1000000E+01     2
         4     1    -1    12   0.750918942342051E+04   0.240000000000000E+04   0.858598110571139E+04   0.231469268411486E+03    2    4    7  1  0.0000000E+00   0.4649528E+00   0.2293854E+00     2
         4     1    -1    12   0.849768707330058E+04   0.249398431257406E+04   0.858382420688735E+04   0.220000000000000E+03    3    4    7  1  0.2349608E+00   0.4595605E+00   0.1000000E+01     2
         4     1    -1    12   0.102607859117742E+05   0.249400665873653E+04   0.858382238738231E+04   0.200000000000000E+03    4    4    7  1  0.2350166E+00   0.4595560E+00   0.1000000E+01     2
         4     1    -1    12   0.127368368795147E+05   0.280000000000000E+04   0.850101561655316E+04   0.173798247389543E+03    4    4    8  1  0.0000000E+00   0.2525390E+00   0.7379825E+00     2
         4     1    -1    12   0.151621475737471E+05   0.312403215214250E+04   0.840000000000000E+04   0.152045971047672E+03    4    5    8  1  0.8100804E+00   0.1000000E+01   0.5204597E+00     2
         4     1    -1    12   0.156817425029912E+05   0.320000000000000E+04   0.837750254297336E+04   0.147740588333678E+03    4    5    9  1  0.0000000E+00   0.9437564E+00   0.4774059E+00     2
         4     1    -1    12   0.183223114490843E+05   0.360000000000000E+04   0.823795049538199E+04   0.128305697392508E+03    4    5   10  1  0.0000000E+00   0.5948762E+00   0.2830570E+00     2
         4     1    -1    12   0.208549996888565E+05   0.400000000000000E+04   0.806977579762391E+04   0.112710006447298E+03    4    5   11  1  0.0000000E+00   0.1744395E+00   0.1271001E+00     2
         4     1    -1    12   0.217312043209433E+05   0.414043647856725E+04   0.800000000000000E+04   0.108019128242801E+03    4    6   11  1  0.3510912E+00   0.1000000E+01   0.8019128E-01     2
         4     1    -1    12   0.232808364212477E+05   0.440000000000000E+04   0.786859238138548E+04   0.100146088671645E+03    4    6   12  1  0.0000000E+00   0.6714810E+00   0.1460887E-02     2
         4     1    -1    12   0.233127441458720E+05   0.440532255480333E+04   0.786553584903403E+04   0.100000000000000E+03    5    6   12  1  0.1330639E-01   0.6638396E+00   0.1000000E+01     2
         4     1    -1    12   0.257405133327500E+05   0.480000000000000E+04   0.761370176999134E+04   0.894873229254760E+02    5    6   13  1  0.0000000E+00   0.3425442E-01   0.8948732E+00     2
         4     1    -1    12   0.258586790282190E+05   0.481878344376169E+04   0.760000000000000E+04   0.890430813126408E+02    5    7   13  1  0.4695861E-01   0.1000000E+01   0.8904308E+00     2
         4     1    -1    12   0.283382112224014E+05   0.520000000000000E+04   0.727842165074240E+04   0.800892389607308E+02    5    7   14  1  0.0000000E+00   0.1960541E+00   0.8008924E+00     2
         4     1    -1    12   0.288940979293926E+05   0.528010355656850E+04   0.720000000000000E+04   0.783973203143910E+02    5    8   14  1  0.2002589E+00   0.1000000E+01   0.7839732E+00     2
         4     1    -1    12   0.313329217648731E+05   0.558295388245537E+04   0.680000000000000E+04   0.711862731219040E+02    5    9   14  1  0.9573847E+00   0.1000000E+01   0.7118627E+00     2