MODPATH_ENDPOINT_FILE 6 0                                                       
 1         25         25         25   0.209999984375000E+06
         0          0         25          0          0          0
         1
PG00            
END HEADER
          1     1  2   0.000000000000000E+00   0.775570345797231E+05  1    1    1    5 6          1   0.5000000E+00   0.5000000E+00   0.1000000E+01   0.180000000000000E+04   0.980000000000000E+04   0.338769439697266E+03  1    1    3   25 6          1   0.9629398E+00   0.5996571E+00   0.1000000E+01   0.998517591144628E+04   0.903986284779680E+04   0.320140258789062E+03 PG00
          2     1  2   0.000000000000000E+00   0.806934323456624E+05  1    1    2    5 6          1   0.5000000E+00   0.5000000E+00   0.1000000E+01   0.180000000000000E+04   0.940000000000000E+04   0.338768127441406E+03  1    1    8   25 6          1   0.9562694E+00   0.9068700E+00   0.1000000E+01   0.998250777708701E+04   0.716274801054144E+04   0.320139923095703E+03 PG00
          3     1  2   0.000000000000000E+00   0.100985531878953E+06  1    1    3    5 6          1   0.5000000E+00   0.5000000E+00   0.1000000E+01   0.180000000000000E+04   0.900000000000000E+04   0.338765563964844E+03  1    1   12   25 6          1   0.9453868E+00   0.3529598E+00   0.1000000E+01   0.997815472358848E+04   0.534118392645695E+04   0.320139709472656E+03 PG00
          4     1  2   0.000000000000000E+00   0.384070693339253E+05  1    1    4    5 6          1   0.5000000E+00   0.5000000E+00   0.1000000E+01   0.180000000000000E+04   0.860000000000000E+04   0.338761901855469E+03  1    5   13   13 2          2   0.1000000E+01   0.8686644E+00   0.3520627E+00   0.520000000000000E+04   0.514746574936066E+04   0.352062676902038E+02 PG00
          5     1  2   0.000000000000000E+00   0.301607624296854E+05  1    1    5    5 6          1   0.5000000E+00   0.5000000E+00   0.1000000E+01   0.180000000000000E+04   0.820000000000000E+04   0.338757263183594E+03  1    5   13   13 4          2   0.8820814E+00   0.1000000E+01   0.4991842E+00   0.515283256993677E+04   0.520000000000000E+04   0.499184224735783E+02 PG00
          6     1  2   0.000000000000000E+00   0.254063257579288E+05  1    1    6    5 6          1   0.5000000E+00   0.5000000E+00   0.1000000E+01   0.180000000000000E+04   0.780000000000000E+04   0.338751922607422E+03  1    5   13   13 4          2   0.6726598E+00   0.1000000E+01   0.5548189E+00   0.506906393005981E+04   0.520000000000000E+04   0.554818875121348E+02 PG00
          7     1  2   0.000000000000000E+00   0.225652896368491E+05  1    1    7    5 6          1   0.5000000E+00   0.5000000E+00   0.1000000E+01   0.180000000000000E+04   0.740000000000000E+04   0.338746185302734E+03  1    5   13   13 4          2   0.4855714E+00   0.1000000E+01   0.6552621E+00   0.499422857370721E+04   0.520000000000000E+04   0.655262071163469E+02 PG00
          8     1  2   0.000000000000000E+00   0.205062544655108E+05  1    1    8    5 6          1   0.5000000E+00   0.5000000E+00   0.1000000E+01   0.180000000000000E+04   0.700000000000000E+04   0.338740356445312E+03  1    5   13   13 4          2   0.3136959E+00   0.1000000E+01   0.7641389E+00   0.492547836894650E+04   0.520000000000000E+04   0.764138887964074E+02 PG00
          9     1  2   0.000000000000000E+00   0.189041961228713E+05  1    1    9    5 6          1   0.5000000E+00   0.5000000E+00   0.1000000E+01   0.180000000000000E+04   0.660000000000000E+04   0.338734802246094E+03  1    5   13   13 4          2   0.1576744E+00   0.1000000E+01   0.9028448E+00   0.486306976983077E+04   0.520000000000000E+04   0.902844823328226E+02 PG00
         10     1  2   0.000000000000000E+00   0.177596840309087E+05  1    1   10    5 6          1   0.5000000E+00   0.5000000E+00   0.1000000E+01   0.180000000000000E+04   0.620000000000000E+04   0.338729980468750E+03  1    5   13   13 6          2   0.3990980E-01   0.9921746E+00   0.1000000E+01   0.481596391873426E+04   0.519686985693516E+04   0.100000000000000E+03 PG00
         11     1  2   0.000000000000000E+00   0.168090882861582E+05  1    1   11    5 6          1   0.5000000E+00   0.5000000E+00   0.1000000E+01   0.180000000000000E+04   0.580000000000000E+04   0.338726165771484E+03  1    5   13   13 1          2   0.0000000E+00   0.8251777E+00   0.9935697E+00   0.480000000000000E+04   0.513007108586383E+04   0.993569744692917E+02 PG00
         12     1  2   0.000000000000000E+00   0.161916959077079E+05  1    1   12    5 6          1   0.5000000E+00   0.5000000E+00   0.1000000E+01   0.180000000000000E+04   0.540000000000000E+04   0.338723754882812E+03  1    5   13   13 1          2   0.0000000E+00   0.6647207E+00   0.9479604E+00   0.480000000000000E+04   0.506588828470099E+04   0.947960444078657E+02 PG00
         13     1  2   0.000000000000000E+00   0.159372948575074E+05  1    1   13    5 6          1   0.5000000E+00   0.5000000E+00   0.1000000E+01   0.180000000000000E+04   0.500000000000000E+04   0.338722930908203E+03  1    5   13   13 1          2   0.0000000E+00   0.4999936E+00   0.9566179E+00   0.480000000000000E+04   0.499999743312232E+04   0.956617857942807E+02 PG00
         14     1  2   0.000000000000000E+00   0.161917257025748E+05  1    1   14    5 6          1   0.5000000E+00   0.5000000E+00   0.1000000E+01   0.180000000000000E+04   0.460000000000000E+04   0.338723754882812E+03  1    5   13   13 1          2   0.0000000E+00   0.3352669E+00   0.9479626E+00   0.480000000000000E+04   0.493410674480754E+04   0.947962581063953E+02 PG00
         15     1  2   0.000000000000000E+00   0.168091532067200E+05  1    1   15    5 6          1   0.5000000E+00   0.5000000E+00   0.1000000E+01   0.180000000000000E+04   0.420000000000000E+04   0.338726165771484E+03  1    5   13   13 1          2   0.0000000E+00   0.1748100E+00   0.9935736E+00   0.480000000000000E+04   0.486992398874622E+04   0.993573630778208E+02 PG00
         16     1  2   0.000000000000000E+00   0.177597773605609E+05  1    1   16    5 6          1   0.5000000E+00   0.5000000E+00   0.1000000E+01   0.180000000000000E+04   0.380000000000000E+04   0.338729949951172E+03  1    5   13   13 6          2   0.3992225E-01   0.7820014E-02   0.1000000E+01   0.481596889891090E+04   0.480312800566189E+04   0.100000000000000E+03 PG00
         17     1  2   0.000000000000000E+00   0.189043305365366E+05  1    1   17    5 6          1   0.5000000E+00   0.5000000E+00   0.1000000E+01   0.180000000000000E+04   0.340000000000000E+04   0.338734802246094E+03  1    5   13   13 3          2   0.1576867E+00   0.0000000E+00   0.9028381E+00   0.486307469617791E+04   0.480000000000000E+04   0.902838061528331E+02 PG00
         18     1  2   0.000000000000000E+00   0.205064559569934E+05  1    1   18    5 6          1   0.5000000E+00   0.5000000E+00   0.1000000E+01   0.180000000000000E+04   0.300000000000000E+04   0.338740325927734E+03  1    5   13   13 3          2   0.3137119E+00   0.0000000E+00   0.7641295E+00   0.492548476150724E+04   0.480000000000000E+04   0.764129490205129E+02 PG00
         19     1  2   0.000000000000000E+00   0.225655934005434E+05  1    1   19    5 6          1   0.5000000E+00   0.5000000E+00   0.1000000E+01   0.180000000000000E+04   0.260000000000000E+04   0.338746154785156E+03  1    5   13   13 3          2   0.4855896E+00   0.0000000E+00   0.6552589E+00   0.499423583927380E+04   0.480000000000000E+04   0.655258908987212E+02 PG00
         20     1  2   0.000000000000000E+00   0.254067732229223E+05  1    1   20    5 6          1   0.5000000E+00   0.5000000E+00   0.1000000E+01   0.180000000000000E+04   0.220000000000000E+04   0.338751892089844E+03  1    5   13   13 3          2   0.6726807E+00   0.0000000E+00   0.5548210E+00   0.506907228887670E+04   0.480000000000000E+04   0.554821048289265E+02 PG00
         21     1  2   0.000000000000000E+00   0.301614992306015E+05  1    1   21    5 6          1   0.5000000E+00   0.5000000E+00   0.1000000E+01   0.180000000000000E+04   0.180000000000000E+04   0.338757232666016E+03  1    5   13   13 3          2   0.8821030E+00   0.0000000E+00   0.4991962E+00   0.515284120159045E+04   0.480000000000000E+04   0.499196178647526E+02 PG00
         22     1  2   0.000000000000000E+00   0.384081776799547E+05  1    1   22    5 6          1   0.5000000E+00   0.5000000E+00   0.1000000E+01   0.180000000000000E+04   0.140000000000000E+04   0.338761871337891E+03  1    5   13   13 2          2   0.1000000E+01   0.1313609E+00   0.3520632E+00   0.520000000000000E+04   0.485254434029520E+04   0.352063212685614E+02 PG00
         23     1  2   0.000000000000000E+00   0.100983488642923E+06  1    1   23    5 6          1   0.5000000E+00   0.5000000E+00   0.1000000E+01   0.180000000000000E+04   0.100000000000000E+04   0.338765533447266E+03  1    1   14   25 6          1   0.9453849E+00   0.6469814E+00   0.1000000E+01   0.997815395580737E+04   0.465879256805697E+04   0.320139709472656E+03 PG00
         24     1  2   0.000000000000000E+00   0.806933327068941E+05  1    1   24    5 6          1   0.5000000E+00   0.5000000E+00   0.1000000E+01   0.180000000000000E+04   0.600000000000000E+03   0.338768096923828E+03  1    1   18   25 6          1   0.9562664E+00   0.9303167E-01   0.1000000E+01   0.998250656010484E+04   0.283721266800126E+04   0.320139923095703E+03 PG00
         25     1  2   0.000000000000000E+00   0.775558216806727E+05  1    1   25    5 6          1   0.5000000E+00   0.5000000E+00   0.1000000E+01   0.180000000000000E+04   0.200000000000000E+03   0.338769378662109E+03  1    1   23   25 6          1   0.9629324E+00   0.4005750E+00   0.1000000E+01   0.998517295629278E+04   0.960230018615902E+03   0.320140258789062E+03 PG00
