MODPATH_TIMESERIES_FILE 6 0                                                     
 1   0.209999984375000E+06
END HEADER
    0    11   0.000000000000000E+00          1     1   0.164000000000000E+04   0.884000000000000E+04   0.338789062500000E+03  1    1    3    5   0.1000000E+00   0.1000000E+00   0.1000000E+01
    0    11   0.000000000000000E+00          2     1   0.172000000000000E+04   0.884000000000000E+04   0.338789062500000E+03  1    1    3    5   0.3000000E+00   0.1000000E+00   0.1000000E+01
    0    11   0.000000000000000E+00          3     1   0.180000000000000E+04   0.884000000000000E+04   0.338789062500000E+03  1    1    3    5   0.5000000E+00   0.1000000E+00   0.1000000E+01
    0    11   0.000000000000000E+00          4     1   0.188000000000000E+04   0.884000000000000E+04   0.338789062500000E+03  1    1    3    5   0.7000000E+00   0.1000000E+00   0.1000000E+01
    0    11   0.000000000000000E+00          5     1   0.196000000000000E+04   0.884000000000000E+04   0.338789062500000E+03  1    1    3    5   0.9000000E+00   0.1000000E+00   0.1000000E+01
    0    11   0.000000000000000E+00          6     1   0.164000000000000E+04   0.892000000000000E+04   0.338789062500000E+03  1    1    3    5   0.1000000E+00   0.3000000E+00   0.1000000E+01
    0    11   0.000000000000000E+00          7     1   0.172000000000000E+04   0.892000000000000E+04   0.338789062500000E+03  1    1    3    5   0.3000000E+00   0.3000000E+00   0.1000000E+01
    0    11   0.000000000000000E+00          8     1   0.180000000000000E+04   0.892000000000000E+04   0.338789062500000E+03  1    1    3    5   0.5000000E+00   0.3000000E+00   0.1000000E+01
    0    11   0.000000000000000E+00          9     1   0.188000000000000E+04   0.892000000000000E+04   0.338789062500000E+03  1    1    3    5   0.7000000E+00   0.3000000E+00   0.1000000E+01
    0    11   0.000000000000000E+00         10     1   0.196000000000000E+04   0.892000000000000E+04   0.338789062500000E+03  1    1    3    5   0.9000000E+00   0.3000000E+00   0.1000000E+01
    0    11   0.000000000000000E+00         11     1   0.164000000000000E+04   0.900000000000000E+04   0.338789062500000E+03  1    1    3    5   0.1000000E+00   0.5000000E+00   0.1000000E+01
    0    11   0.000000000000000E+00         12     1   0.172000000000000E+04   0.900000000000000E+04   0.338789062500000E+03  1    1    3    5   0.3000000E+00   0.5000000E+00   0.1000000E+01
    0    11   0.000000000000000E+00         13     1   0.180000000000000E+04   0.900000000000000E+04   0.338789062500000E+03  1    1    3    5   0.5000000E+00   0.5000000E+00   0.1000000E+01
    0    11   0.000000000000000E+00         14     1   0.188000000000000E+04   0.900000000000000E+04   0.338789062500000E+03  1    1    3    5   0.7000000E+00   0.5000000E+00   0.1000000E+01
    0    11   0.000000000000000E+00         15     1   0.196000000000000E+04   0.900000000000000E+04   0.338789062500000E+03  1    1    3    5   0.9000000E+00   0.5000000E+00   0.1000000E+01
    0    11   0.000000000000000E+00         16     1   0.164000000000000E+04   0.908000000000000E+04   0.338789062500000E+03  1    1    3    5   0.1000000E+00   0.7000000E+00   0.1000000E+01
    0    11   0.000000000000000E+00         17     1   0.172000000000000E+04   0.908000000000000E+04   0.338789062500000E+03  1    1    3    5   0.3000000E+00   0.7000000E+00   0.1000000E+01
    0    11   0.000000000000000E+00         18     1   0.180000000000000E+04   0.908000000000000E+04   0.338789062500000E+03  1    1    3    5   0.5000000E+00   0.7000000E+00   0.1000000E+01
    0    11   0.000000000000000E+00         19     1   0.188000000000000E+04   0.908000000000000E+04   0.338789062500000E+03  1    1    3    5   0.7000000E+00   0.7000000E+00   0.1000000E+01
    0    11   0.000000000000000E+00         20     1   0.196000000000000E+04   0.908000000000000E+04   0.338789062500000E+03  1    1    3    5   0.9000000E+00   0.7000000E+00   0.1000000E+01
    0    11   0.000000000000000E+00         21     1   0.164000000000000E+04   0.916000000000000E+04   0.338789062500000E+03  1    1    3    5   0.1000000E+00   0.9000000E+00   0.1000000E+01
    0    11   0.000000000000000E+00         22     1   0.172000000000000E+04   0.916000000000000E+04   0.338789062500000E+03  1    1    3    5   0.3000000E+00   0.9000000E+00   0.1000000E+01
    0    11   0.000000000000000E+00         23     1   0.180000000000000E+04   0.916000000000000E+04   0.338789062500000E+03  1    1    3    5   0.5000000E+00   0.9000000E+00   0.1000000E+01
    0    11   0.000000000000000E+00         24     1   0.188000000000000E+04   0.916000000000000E+04   0.338789062500000E+03  1    1    3    5   0.7000000E+00   0.9000000E+00   0.1000000E+01
    0    11   0.000000000000000E+00         25     1   0.196000000000000E+04   0.916000000000000E+04   0.338789062500000E+03  1    1    3    5   0.9000000E+00   0.9000000E+00   0.1000000E+01
    0    11   0.000000000000000E+00         26     1   0.204000000000000E+04   0.884000000000000E+04   0.338605987548828E+03  1    1    3    6   0.1000000E+00   0.1000000E+00   0.1000000E+01
    0    11   0.000000000000000E+00         27     1   0.212000000000000E+04   0.884000000000000E+04   0.338605987548828E+03  1    1    3    6   0.3000000E+00   0.1000000E+00   0.1000000E+01
    0    11   0.000000000000000E+00         28     1   0.220000000000000E+04   0.884000000000000E+04   0.338605987548828E+03  1    1    3    6   0.5000000E+00   0.1000000E+00   0.1000000E+01
    0    11   0.000000000000000E+00         29     1   0.228000000000000E+04   0.884000000000000E+04   0.338605987548828E+03  1    1    3    6   0.7000000E+00   0.1000000E+00   0.1000000E+01
    0    11   0.000000000000000E+00         30     1   0.236000000000000E+04   0.884000000000000E+04   0.338605987548828E+03  1    1    3    6   0.9000000E+00   0.1000000E+00   0.1000000E+01
    0    11   0.000000000000000E+00         31     1   0.204000000000000E+04   0.892000000000000E+04   0.338605987548828E+03  1    1    3    6   0.1000000E+00   0.3000000E+00   0.1000000E+01
    0    11   0.000000000000000E+00         32     1   0.212000000000000E+04   0.892000000000000E+04   0.338605987548828E+03  1    1    3    6   0.3000000E+00   0.3000000E+00   0.1000000E+01
    0    11   0.000000000000000E+00         33     1   0.220000000000000E+04   0.892000000000000E+04   0.338605987548828E+03  1    1    3    6   0.5000000E+00   0.3000000E+00   0.1000000E+01
    0    11   0.000000000000000E+00         34     1   0.228000000000000E+04   0.892000000000000E+04   0.338605987548828E+03  1    1    3    6   0.7000000E+00   0.3000000E+00   0.1000000E+01
    0    11   0.000000000000000E+00         35     1   0.236000000000000E+04   0.892000000000000E+04   0.338605987548828E+03  1    1    3    6   0.9000000E+00   0.3000000E+00   0.1000000E+01
    0    11   0.000000000000000E+00         36     1   0.204000000000000E+04   0.900000000000000E+04   0.338605987548828E+03  1    1    3    6   0.1000000E+00   0.5000000E+00   0.1000000E+01
    0    11   0.000000000000000E+00         37     1   0.212000000000000E+04   0.900000000000000E+04   0.338605987548828E+03  1    1    3    6   0.3000000E+00   0.5000000E+00   0.1000000E+01
    0    11   0.000000000000000E+00         38     1   0.220000000000000E+04   0.900000000000000E+04   0.338605987548828E+03  1    1    3    6   0.5000000E+00   0.5000000E+00   0.1000000E+01
    0    11   0.000000000000000E+00         39     1   0.228000000000000E+04   0.900000000000000E+04   0.338605987548828E+03  1    1    3    6   0.7000000E+00   0.5000000E+00   0.1000000E+01
    0    11   0.000000000000000E+00         40     1   0.236000000000000E+04   0.900000000000000E+04   0.338605987548828E+03  1    1    3    6   0.9000000E+00   0.5000000E+00   0.1000000E+01
    0    11   0.000000000000000E+00         41     1   0.204000000000000E+04   0.908000000000000E+04   0.338605987548828E+03  1    1    3    6   0.1000000E+00   0.7000000E+00   0.1000000E+01
    0    11   0.000000000000000E+00         42     1   0.212000000000000E+04   0.908000000000000E+04   0.338605987548828E+03  1    1    3    6   0.3000000E+00   0.7000000E+00   0.1000000E+01
    0    11   0.000000000000000E+00         43     1   0.220000000000000E+04   0.908000000000000E+04   0.338605987548828E+03  1    1    3    6   0.5000000E+00   0.7000000E+00   0.1000000E+01
    0    11   0.000000000000000E+00         44     1   0.228000000000000E+04   0.908000000000000E+04   0.338605987548828E+03  1    1    3    6   0.7000000E+00   0.7000000E+00   0.1000000E+01
    0    11   0.000000000000000E+00         45     1   0.236000000000000E+04   0.908000000000000E+04   0.338605987548828E+03  1    1    3    6   0.9000000E+00   0.7000000E+00   0.1000000E+01
    0    11   0.000000000000000E+00         46     1   0.204000000000000E+04   0.916000000000000E+04   0.338605987548828E+03  1    1    3    6   0.1000000E+00   0.9000000E+00   0.1000000E+01
    0    11   0.000000000000000E+00         47     1   0.212000000000000E+04   0.916000000000000E+04   0.338605987548828E+03  1    1    3    6   0.3000000E+00   0.9000000E+00   0.1000000E+01
    0    11   0.000000000000000E+00         48     1   0.220000000000000E+04   0.916000000000000E+04   0.338605987548828E+03  1    1    3    6   0.5000000E+00   0.9000000E+00   0.1000000E+01
    0    11   0.000000000000000E+00         49     1   0.228000000000000E+04   0.916000000000000E+04   0.338605987548828E+03  1    1    3    6   0.7000000E+00   0.9000000E+00   0.1000000E+01
    0    11   0.000000000000000E+00         50     1   0.236000000000000E+04   0.916000000000000E+04   0.338605987548828E+03  1    1    3    6   0.9000000E+00   0.9000000E+00   0.1000000E+01
    0    11   0.000000000000000E+00         51     1   0.244000000000000E+04   0.884000000000000E+04   0.338382568359375E+03  1    1    3    7   0.1000000E+00   0.1000000E+00   0.1000000E+01
    0    11   0.000000000000000E+00         52     1   0.252000000000000E+04   0.884000000000000E+04   0.338382568359375E+03  1    1    3    7   0.3000000E+00   0.1000000E+00   0.1000000E+01
    0    11   0.000000000000000E+00         53     1   0.260000000000000E+04   0.884000000000000E+04   0.338382568359375E+03  1    1    3    7   0.5000000E+00   0.1000000E+00   0.1000000E+01
    0    11   0.000000000000000E+00         54     1   0.268000000000000E+04   0.884000000000000E+04   0.338382568359375E+03  1    1    3    7   0.7000000E+00   0.1000000E+00   0.1000000E+01
    0    11   0.000000000000000E+00         55     1   0.276000000000000E+04   0.884000000000000E+04   0.338382568359375E+03  1    1    3    7   0.9000000E+00   0.1000000E+00   0.1000000E+01
    0    11   0.000000000000000E+00         56     1   0.244000000000000E+04   0.892000000000000E+04   0.338382568359375E+03  1    1    3    7   0.1000000E+00   0.3000000E+00   0.1000000E+01
    0    11   0.000000000000000E+00         57     1   0.252000000000000E+04   0.892000000000000E+04   0.338382568359375E+03  1    1    3    7   0.3000000E+00   0.3000000E+00   0.1000000E+01
    0    11   0.000000000000000E+00         58     1   0.260000000000000E+04   0.892000000000000E+04   0.338382568359375E+03  1    1    3    7   0.5000000E+00   0.3000000E+00   0.1000000E+01
    0    11   0.000000000000000E+00         59     1   0.268000000000000E+04   0.892000000000000E+04   0.338382568359375E+03  1    1    3    7   0.7000000E+00   0.3000000E+00   0.1000000E+01
    0    11   0.000000000000000E+00         60     1   0.276000000000000E+04   0.892000000000000E+04   0.338382568359375E+03  1    1    3    7   0.9000000E+00   0.3000000E+00   0.1000000E+01
    0    11   0.000000000000000E+00         61     1   0.244000000000000E+04   0.900000000000000E+04   0.338382568359375E+03  1    1    3    7   0.1000000E+00   0.5000000E+00   0.1000000E+01
    0    11   0.000000000000000E+00         62     1   0.252000000000000E+04   0.900000000000000E+04   0.338382568359375E+03  1    1    3    7   0.3000000E+00   0.5000000E+00   0.1000000E+01
    0    11   0.000000000000000E+00         63     1   0.260000000000000E+04   0.900000000000000E+04   0.338382568359375E+03  1    1    3    7   0.5000000E+00   0.5000000E+00   0.1000000E+01
    0    11   0.000000000000000E+00         64     1   0.268000000000000E+04   0.900000000000000E+04   0.338382568359375E+03  1    1    3    7   0.7000000E+00   0.5000000E+00   0.1000000E+01
    0    11   0.000000000000000E+00         65     1   0.276000000000000E+04   0.900000000000000E+04   0.338382568359375E+03  1    1    3    7   0.9000000E+00   0.5000000E+00   0.1000000E+01
    0    11   0.000000000000000E+00         66     1   0.244000000000000E+04   0.908000000000000E+04   0.338382568359375E+03  1    1    3    7   0.1000000E+00   0.7000000E+00   0.1000000E+01
    0    11   0.000000000000000E+00         67     1   0.252000000000000E+04   0.908000000000000E+04   0.338382568359375E+03  1    1    3    7   0.3000000E+00   0.7000000E+00   0.1000000E+01
    0    11   0.000000000000000E+00         68     1   0.260000000000000E+04   0.908000000000000E+04   0.338382568359375E+03  1    1    3    7   0.5000000E+00   0.7000000E+00   0.1000000E+01
    0    11   0.000000000000000E+00         69     1   0.268000000000000E+04   0.908000000000000E+04   0.338382568359375E+03  1    1    3    7   0.7000000E+00   0.7000000E+00   0.1000000E+01
    0    11   0.000000000000000E+00         70     1   0.276000000000000E+04   0.908000000000000E+04   0.338382568359375E+03  1    1    3    7   0.9000000E+00   0.7000000E+00   0.1000000E+01
    0    11   0.000000000000000E+00         71     1   0.244000000000000E+04   0.916000000000000E+04   0.338382568359375E+03  1    1    3    7   0.1000000E+00   0.9000000E+00   0.1000000E+01
    0    11   0.000000000000000E+00         72     1   0.252000000000000E+04   0.916000000000000E+04   0.338382568359375E+03  1    1    3    7   0.3000000E+00   0.9000000E+00   0.1000000E+01
    0    11   0.000000000000000E+00         73     1   0.260000000000000E+04   0.916000000000000E+04   0.338382568359375E+03  1    1    3    7   0.5000000E+00   0.9000000E+00   0.1000000E+01
    0    11   0.000000000000000E+00         74     1   0.268000000000000E+04   0.916000000000000E+04   0.338382568359375E+03  1    1    3    7   0.7000000E+00   0.9000000E+00   0.1000000E+01
    0    11   0.000000000000000E+00         75     1   0.276000000000000E+04   0.916000000000000E+04   0.338382568359375E+03  1    1    3    7   0.9000000E+00   0.9000000E+00   0.1000000E+01
    0    11   0.000000000000000E+00         76     1   0.164000000000000E+04   0.844000000000000E+04   0.338785369873047E+03  1    1    4    5   0.1000000E+00   0.1000000E+00   0.1000000E+01
    0    11   0.000000000000000E+00         77     1   0.172000000000000E+04   0.844000000000000E+04   0.338785369873047E+03  1    1    4    5   0.3000000E+00   0.1000000E+00   0.1000000E+01
    0    11   0.000000000000000E+00         78     1   0.180000000000000E+04   0.844000000000000E+04   0.338785369873047E+03  1    1    4    5   0.5000000E+00   0.1000000E+00   0.1000000E+01
    0    11   0.000000000000000E+00         79     1   0.188000000000000E+04   0.844000000000000E+04   0.338785369873047E+03  1    1    4    5   0.7000000E+00   0.1000000E+00   0.1000000E+01
    0    11   0.000000000000000E+00         80     1   0.196000000000000E+04   0.844000000000000E+04   0.338785369873047E+03  1    1    4    5   0.9000000E+00   0.1000000E+00   0.1000000E+01
    0    11   0.000000000000000E+00         81     1   0.164000000000000E+04   0.852000000000000E+04   0.338785369873047E+03  1    1    4    5   0.1000000E+00   0.3000000E+00   0.1000000E+01
    0    11   0.000000000000000E+00         82     1   0.172000000000000E+04   0.852000000000000E+04   0.338785369873047E+03  1    1    4    5   0.3000000E+00   0.3000000E+00   0.1000000E+01
    0    11   0.000000000000000E+00         83     1   0.180000000000000E+04   0.852000000000000E+04   0.338785369873047E+03  1    1    4    5   0.5000000E+00   0.3000000E+00   0.1000000E+01
    0    11   0.000000000000000E+00         84     1   0.188000000000000E+04   0.852000000000000E+04   0.338785369873047E+03  1    1    4    5   0.7000000E+00   0.3000000E+00   0.1000000E+01
    0    11   0.000000000000000E+00         85     1   0.196000000000000E+04   0.852000000000000E+04   0.338785369873047E+03  1    1    4    5   0.9000000E+00   0.3000000E+00   0.1000000E+01
    0    11   0.000000000000000E+00         86     1   0.164000000000000E+04   0.860000000000000E+04   0.338785369873047E+03  1    1    4    5   0.1000000E+00   0.5000000E+00   0.1000000E+01
    0    11   0.000000000000000E+00         87     1   0.172000000000000E+04   0.860000000000000E+04   0.338785369873047E+03  1    1    4    5   0.3000000E+00   0.5000000E+00   0.1000000E+01
    0    11   0.000000000000000E+00         88     1   0.180000000000000E+04   0.860000000000000E+04   0.338785369873047E+03  1    1    4    5   0.5000000E+00   0.5000000E+00   0.1000000E+01
    0    11   0.000000000000000E+00         89     1   0.188000000000000E+04   0.860000000000000E+04   0.338785369873047E+03  1    1    4    5   0.7000000E+00   0.5000000E+00   0.1000000E+01
    0    11   0.000000000000000E+00         90     1   0.196000000000000E+04   0.860000000000000E+04   0.338785369873047E+03  1    1    4    5   0.9000000E+00   0.5000000E+00   0.1000000E+01
    0    11   0.000000000000000E+00         91     1   0.164000000000000E+04   0.868000000000000E+04   0.338785369873047E+03  1    1    4    5   0.1000000E+00   0.7000000E+00   0.1000000E+01
    0    11   0.000000000000000E+00         92     1   0.172000000000000E+04   0.868000000000000E+04   0.338785369873047E+03  1    1    4    5   0.3000000E+00   0.7000000E+00   0.1000000E+01
    0    11   0.000000000000000E+00         93     1   0.180000000000000E+04   0.868000000000000E+04   0.338785369873047E+03  1    1    4    5   0.5000000E+00   0.7000000E+00   0.1000000E+01
    0    11   0.000000000000000E+00         94     1   0.188000000000000E+04   0.868000000000000E+04   0.338785369873047E+03  1    1    4    5   0.7000000E+00   0.7000000E+00   0.1000000E+01
    0    11   0.000000000000000E+00         95     1   0.196000000000000E+04   0.868000000000000E+04   0.338785369873047E+03  1    1    4    5   0.9000000E+00   0.7000000E+00   0.1000000E+01
    0    11   0.000000000000000E+00         96     1   0.164000000000000E+04   0.876000000000000E+04   0.338785369873047E+03  1    1    4    5   0.1000000E+00   0.9000000E+00   0.1000000E+01
    0    11   0.000000000000000E+00         97     1   0.172000000000000E+04   0.876000000000000E+04   0.338785369873047E+03  1    1    4    5   0.3000000E+00   0.9000000E+00   0.1000000E+01
    0    11   0.000000000000000E+00         98     1   0.180000000000000E+04   0.876000000000000E+04   0.338785369873047E+03  1    1    4    5   0.5000000E+00   0.9000000E+00   0.1000000E+01
    0    11   0.000000000000000E+00         99     1   0.188000000000000E+04   0.876000000000000E+04   0.338785369873047E+03  1    1    4    5   0.7000000E+00   0.9000000E+00   0.1000000E+01
    0    11   0.000000000000000E+00        100     1   0.196000000000000E+04   0.876000000000000E+04   0.338785369873047E+03  1    1    4    5   0.9000000E+00   0.9000000E+00   0.1000000E+01
    0    11   0.000000000000000E+00        101     1   0.204000000000000E+04   0.844000000000000E+04   0.338601898193359E+03  1    1    4    6   0.1000000E+00   0.1000000E+00   0.1000000E+01
    0    11   0.000000000000000E+00        102     1   0.212000000000000E+04   0.844000000000000E+04   0.338601898193359E+03  1    1    4    6   0.3000000E+00   0.1000000E+00   0.1000000E+01
    0    11   0.000000000000000E+00        103     1   0.220000000000000E+04   0.844000000000000E+04   0.338601898193359E+03  1    1    4    6   0.5000000E+00   0.1000000E+00   0.1000000E+01
    0    11   0.000000000000000E+00        104     1   0.228000000000000E+04   0.844000000000000E+04   0.338601898193359E+03  1    1    4    6   0.7000000E+00   0.1000000E+00   0.1000000E+01
    0    11   0.000000000000000E+00        105     1   0.236000000000000E+04   0.844000000000000E+04   0.338601898193359E+03  1    1    4    6   0.9000000E+00   0.1000000E+00   0.1000000E+01
    0    11   0.000000000000000E+00        106     1   0.204000000000000E+04   0.852000000000000E+04   0.338601898193359E+03  1    1    4    6   0.1000000E+00   0.3000000E+00   0.1000000E+01
    0    11   0.000000000000000E+00        107     1   0.212000000000000E+04   0.852000000000000E+04   0.338601898193359E+03  1    1    4    6   0.3000000E+00   0.3000000E+00   0.1000000E+01
    0    11   0.000000000000000E+00        108     1   0.220000000000000E+04   0.852000000000000E+04   0.338601898193359E+03  1    1    4    6   0.5000000E+00   0.3000000E+00   0.1000000E+01
    0    11   0.000000000000000E+00        109     1   0.228000000000000E+04   0.852000000000000E+04   0.338601898193359E+03  1    1    4    6   0.7000000E+00   0.3000000E+00   0.1000000E+01
    0    11   0.000000000000000E+00        110     1   0.236000000000000E+04   0.852000000000000E+04   0.338601898193359E+03  1    1    4    6   0.9000000E+00   0.3000000E+00   0.1000000E+01
    0    11   0.000000000000000E+00        111     1   0.204000000000000E+04   0.860000000000000E+04   0.338601898193359E+03  1    1    4    6   0.1000000E+00   0.5000000E+00   0.1000000E+01
    0    11   0.000000000000000E+00        112     1   0.212000000000000E+04   0.860000000000000E+04   0.338601898193359E+03  1    1    4    6   0.3000000E+00   0.5000000E+00   0.1000000E+01
    0    11   0.000000000000000E+00        113     1   0.220000000000000E+04   0.860000000000000E+04   0.338601898193359E+03  1    1    4    6   0.5000000E+00   0.5000000E+00   0.1000000E+01
    0    11   0.000000000000000E+00        114     1   0.228000000000000E+04   0.860000000000000E+04   0.338601898193359E+03  1    1    4    6   0.7000000E+00   0.5000000E+00   0.1000000E+01
    0    11   0.000000000000000E+00        115     1   0.236000000000000E+04   0.860000000000000E+04   0.338601898193359E+03  1    1    4    6   0.9000000E+00   0.5000000E+00   0.1000000E+01
    0    11   0.000000000000000E+00        116     1   0.204000000000000E+04   0.868000000000000E+04   0.338601898193359E+03  1    1    4    6   0.1000000E+00   0.7000000E+00   0.1000000E+01
    0    11   0.000000000000000E+00        117     1   0.212000000000000E+04   0.868000000000000E+04   0.338601898193359E+03  1    1    4    6   0.3000000E+00   0.7000000E+00   0.1000000E+01
    0    11   0.000000000000000E+00        118     1   0.220000000000000E+04   0.868000000000000E+04   0.338601898193359E+03  1    1    4    6   0.5000000E+00   0.7000000E+00   0.1000000E+01
    0    11   0.000000000000000E+00        119     1   0.228000000000000E+04   0.868000000000000E+04   0.338601898193359E+03  1    1    4    6   0.7000000E+00   0.7000000E+00   0.1000000E+01
    0    11   0.000000000000000E+00        120     1   0.236000000000000E+04   0.868000000000000E+04   0.338601898193359E+03  1    1    4    6   0.9000000E+00   0.7000000E+00   0.1000000E+01
    0    11   0.000000000000000E+00        121     1   0.204000000000000E+04   0.876000000000000E+04   0.338601898193359E+03  1    1    4    6   0.1000000E+00   0.9000000E+00   0.1000000E+01
    0    11   0.000000000000000E+00        122     1   0.212000000000000E+04   0.876000000000000E+04   0.338601898193359E+03  1    1    4    6   0.3000000E+00   0.9000000E+00   0.1000000E+01
    0    11   0.000000000000000E+00        123     1   0.220000000000000E+04   0.876000000000000E+04   0.338601898193359E+03  1    1    4    6   0.5000000E+00   0.9000000E+00   0.1000000E+01
    0    11   0.000000000000000E+00        124     1   0.228000000000000E+04   0.876000000000000E+04   0.338601898193359E+03  1    1    4    6   0.7000000E+00   0.9000000E+00   0.1000000E+01
    0    11   0.000000000000000E+00        125     1   0.236000000000000E+04   0.876000000000000E+04   0.338601898193359E+03  1    1    4    6   0.9000000E+00   0.9000000E+00   0.1000000E+01
    0    11   0.000000000000000E+00        126     1   0.244000000000000E+04   0.844000000000000E+04   0.338378021240234E+03  1    1    4    7   0.1000000E+00   0.1000000E+00   0.1000000E+01
    0    11   0.000000000000000E+00        127     1   0.252000000000000E+04   0.844000000000000E+04   0.338378021240234E+03  1    1    4    7   0.3000000E+00   0.1000000E+00   0.1000000E+01
    0    11   0.000000000000000E+00        128     1   0.260000000000000E+04   0.844000000000000E+04   0.338378021240234E+03  1    1    4    7   0.5000000E+00   0.1000000E+00   0.1000000E+01
    0    11   0.000000000000000E+00        129     1   0.268000000000000E+04   0.844000000000000E+04   0.338378021240234E+03  1    1    4    7   0.7000000E+00   0.1000000E+00   0.1000000E+01
    0    11   0.000000000000000E+00        130     1   0.276000000000000E+04   0.844000000000000E+04   0.338378021240234E+03  1    1    4    7   0.9000000E+00   0.1000000E+00   0.1000000E+01
    0    11   0.000000000000000E+00        131     1   0.244000000000000E+04   0.852000000000000E+04   0.338378021240234E+03  1    1    4    7   0.1000000E+00   0.3000000E+00   0.1000000E+01
    0    11   0.000000000000000E+00        132     1   0.252000000000000E+04   0.852000000000000E+04   0.338378021240234E+03  1    1    4    7   0.3000000E+00   0.3000000E+00   0.1000000E+01
    0    11   0.000000000000000E+00        133     1   0.260000000000000E+04   0.852000000000000E+04   0.338378021240234E+03  1    1    4    7   0.5000000E+00   0.3000000E+00   0.1000000E+01
    0    11   0.000000000000000E+00        134     1   0.268000000000000E+04   0.852000000000000E+04   0.338378021240234E+03  1    1    4    7   0.7000000E+00   0.3000000E+00   0.1000000E+01
    0    11   0.000000000000000E+00        135     1   0.276000000000000E+04   0.852000000000000E+04   0.338378021240234E+03  1    1    4    7   0.9000000E+00   0.3000000E+00   0.1000000E+01
    0    11   0.000000000000000E+00        136     1   0.244000000000000E+04   0.860000000000000E+04   0.338378021240234E+03  1    1    4    7   0.1000000E+00   0.5000000E+00   0.1000000E+01
    0    11   0.000000000000000E+00        137     1   0.252000000000000E+04   0.860000000000000E+04   0.338378021240234E+03  1    1    4    7   0.3000000E+00   0.5000000E+00   0.1000000E+01
    0    11   0.000000000000000E+00        138     1   0.260000000000000E+04   0.860000000000000E+04   0.338378021240234E+03  1    1    4    7   0.5000000E+00   0.5000000E+00   0.1000000E+01
    0    11   0.000000000000000E+00        139     1   0.268000000000000E+04   0.860000000000000E+04   0.338378021240234E+03  1    1    4    7   0.7000000E+00   0.5000000E+00   0.1000000E+01
    0    11   0.000000000000000E+00        140     1   0.276000000000000E+04   0.860000000000000E+04   0.338378021240234E+03  1    1    4    7   0.9000000E+00   0.5000000E+00   0.1000000E+01
    0    11   0.000000000000000E+00        141     1   0.244000000000000E+04   0.868000000000000E+04   0.338378021240234E+03  1    1    4    7   0.1000000E+00   0.7000000E+00   0.1000000E+01
    0    11   0.000000000000000E+00        142     1   0.252000000000000E+04   0.868000000000000E+04   0.338378021240234E+03  1    1    4    7   0.3000000E+00   0.7000000E+00   0.1000000E+01
    0    11   0.000000000000000E+00        143     1   0.260000000000000E+04   0.868000000000000E+04   0.338378021240234E+03  1    1    4    7   0.5000000E+00   0.7000000E+00   0.1000000E+01
    0    11   0.000000000000000E+00        144     1   0.268000000000000E+04   0.868000000000000E+04   0.338378021240234E+03  1    1    4    7   0.7000000E+00   0.7000000E+00   0.1000000E+01
    0    11   0.000000000000000E+00        145     1   0.276000000000000E+04   0.868000000000000E+04   0.338378021240234E+03  1    1    4    7   0.9000000E+00   0.7000000E+00   0.1000000E+01
    0    11   0.000000000000000E+00        146     1   0.244000000000000E+04   0.876000000000000E+04   0.338378021240234E+03  1    1    4    7   0.1000000E+00   0.9000000E+00   0.1000000E+01
    0    11   0.000000000000000E+00        147     1   0.252000000000000E+04   0.876000000000000E+04   0.338378021240234E+03  1    1    4    7   0.3000000E+00   0.9000000E+00   0.1000000E+01
    0    11   0.000000000000000E+00        148     1   0.260000000000000E+04   0.876000000000000E+04   0.338378021240234E+03  1    1    4    7   0.5000000E+00   0.9000000E+00   0.1000000E+01
    0    11   0.000000000000000E+00        149     1   0.268000000000000E+04   0.876000000000000E+04   0.338378021240234E+03  1    1    4    7   0.7000000E+00   0.9000000E+00   0.1000000E+01
    0    11   0.000000000000000E+00        150     1   0.276000000000000E+04   0.876000000000000E+04   0.338378021240234E+03  1    1    4    7   0.9000000E+00   0.9000000E+00   0.1000000E+01
    0    11   0.000000000000000E+00        151     1   0.164000000000000E+04   0.804000000000000E+04   0.338780761718750E+03  1    1    5    5   0.1000000E+00   0.1000000E+00   0.1000000E+01
    0    11   0.000000000000000E+00        152     1   0.172000000000000E+04   0.804000000000000E+04   0.338780761718750E+03  1    1    5    5   0.3000000E+00   0.1000000E+00   0.1000000E+01
    0    11   0.000000000000000E+00        153     1   0.180000000000000E+04   0.804000000000000E+04   0.338780761718750E+03  1    1    5    5   0.5000000E+00   0.1000000E+00   0.1000000E+01
    0    11   0.000000000000000E+00        154     1   0.188000000000000E+04   0.804000000000000E+04   0.338780761718750E+03  1    1    5    5   0.7000000E+00   0.1000000E+00   0.1000000E+01
    0    11   0.000000000000000E+00        155     1   0.196000000000000E+04   0.804000000000000E+04   0.338780761718750E+03  1    1    5    5   0.9000000E+00   0.1000000E+00   0.1000000E+01