MODPATH_ENDPOINT_FILE 6 0                                                       
 1       2500       2500       2500   0.209999984375000E+06
         0          0       2500          0          0          0
         1
PG00            
END HEADER
          1     1  2   0.000000000000000E+00   0.189404687221846E+06  1    1    1    1 6          1   0.2500000E+00   0.2500000E+00   0.1000000E+01   0.100000000000000E+03   0.970000000000000E+04   0.339126068115234E+03  1    1   10   25 6          1   0.9981756E+00   0.5742125E-02   0.1000000E+01   0.999927022963948E+04   0.600229685014140E+04   0.320139770507812E+03 PG00
          2     1  2   0.000000000000000E+00   0.146922221149656E+06  1    1    1    1 6          1   0.7500000E+00   0.2500000E+00   0.1000000E+01   0.300000000000000E+03   0.970000000000000E+04   0.339126068115234E+03  1    1    8   25 6          1   0.9954713E+00   0.2414481E+00   0.1000000E+01   0.999818853564934E+04   0.689657924912741E+04   0.320139923095703E+03 PG00
          3     1  2   0.000000000000000E+00   0.185368085851931E+06  1    1    1    1 6          1   0.2500000E+00   0.7500000E+00   0.1000000E+01   0.100000000000000E+03   0.990000000000000E+04   0.339126068115234E+03  1    1    5   25 6          1   0.9993358E+00   0.4353269E+00   0.1000000E+01   0.999973431328332E+04   0.817413075679416E+04   0.320140136718750E+03 PG00
          4     1  2   0.000000000000000E+00   0.144905048443510E+06  1    1    1    1 6          1   0.7500000E+00   0.7500000E+00   0.1000000E+01   0.300000000000000E+03   0.990000000000000E+04   0.339126068115234E+03  1    1    3   25 6          1   0.9971982E+00   0.5054183E-01   0.1000000E+01   0.999887929551554E+04   0.882021673199731E+04   0.320140258789062E+03 PG00
          5     1  2   0.000000000000000E+00   0.127556019654691E+06  1    1    1    2 6          1   0.2500000E+00   0.2500000E+00   0.1000000E+01   0.500000000000000E+03   0.970000000000000E+04   0.339090881347656E+03  1    1    7   25 6          1   0.9923624E+00   0.4094981E+00   0.1000000E+01   0.999694496128688E+04   0.736379923590708E+04   0.320139984130859E+03 PG00
          6     1  2   0.000000000000000E+00   0.114819219519779E+06  1    1    1    2 6          1   0.7500000E+00   0.2500000E+00   0.1000000E+01   0.700000000000000E+03   0.970000000000000E+04   0.339090881347656E+03  1    1    6   25 6          1   0.9888456E+00   0.1821423E+00   0.1000000E+01   0.999553825415667E+04   0.767285691092045E+04   0.320140075683594E+03 PG00
          7     1  2   0.000000000000000E+00   0.126064992143823E+06  1    1    1    2 6          1   0.2500000E+00   0.7500000E+00   0.1000000E+01   0.500000000000000E+03   0.990000000000000E+04   0.339090881347656E+03  1    1    3   25 6          1   0.9943048E+00   0.6325674E+00   0.1000000E+01   0.999772190966114E+04   0.905302694366657E+04   0.320140258789062E+03 PG00
          8     1  2   0.000000000000000E+00   0.113593125930896E+06  1    1    1    2 6          1   0.7500000E+00   0.7500000E+00   0.1000000E+01   0.700000000000000E+03   0.990000000000000E+04   0.339090881347656E+03  1    1    3   25 6          1   0.9908978E+00   0.9666597E+00   0.1000000E+01   0.999635912187578E+04   0.918666386168008E+04   0.320140258789062E+03 PG00
          9     1  2   0.000000000000000E+00   0.105260991539090E+06  1    1    1    3 6          1   0.2500000E+00   0.2500000E+00   0.1000000E+01   0.900000000000000E+03   0.970000000000000E+04   0.339020202636719E+03  1    1    6   25 6          1   0.9848835E+00   0.7513966E+00   0.1000000E+01   0.999395338569952E+04   0.790055863602145E+04   0.320140075683594E+03 PG00
         10     1  2   0.000000000000000E+00   0.975317280610079E+05  1    1    1    3 6          1   0.7500000E+00   0.2500000E+00   0.1000000E+01   0.110000000000000E+04   0.970000000000000E+04   0.339020202636719E+03  1    1    5   25 6          1   0.9805425E+00   0.2181233E+00   0.1000000E+01   0.999221698056354E+04   0.808724931324928E+04   0.320140136718750E+03 PG00
         11     1  2   0.000000000000000E+00   0.104191445434390E+06  1    1    1    3 6          1   0.2500000E+00   0.7500000E+00   0.1000000E+01   0.900000000000000E+03   0.990000000000000E+04   0.339020202636719E+03  1    1    2   25 6          1   0.9869239E+00   0.1955353E+00   0.1000000E+01   0.999476957073665E+04   0.927821412060185E+04   0.320140289306641E+03 PG00
         12     1  2   0.000000000000000E+00   0.965823294896544E+05  1    1    1    3 6          1   0.7500000E+00   0.7500000E+00   0.1000000E+01   0.110000000000000E+04   0.990000000000000E+04   0.339020202636719E+03  1    1    2   25 6          1   0.9824773E+00   0.3726237E+00   0.1000000E+01   0.999299092347181E+04   0.934904947509878E+04   0.320140289306641E+03 PG00
         13     1  2   0.000000000000000E+00   0.910279809043109E+05  1    1    1    4 6          1   0.2500000E+00   0.2500000E+00   0.1000000E+01   0.130000000000000E+04   0.970000000000000E+04   0.338913360595703E+03  1    1    5   25 6          1   0.9757285E+00   0.6105513E+00   0.1000000E+01   0.999029139030999E+04   0.824422052468708E+04   0.320140136718750E+03 PG00
         14     1  2   0.000000000000000E+00   0.853485036200217E+05  1    1    1    4 6          1   0.7500000E+00   0.2500000E+00   0.1000000E+01   0.150000000000000E+04   0.970000000000000E+04   0.338913360595703E+03  1    1    5   25 6          1   0.9707130E+00   0.9520394E+00   0.1000000E+01   0.998828521471621E+04   0.838081577779335E+04   0.320140136718750E+03 PG00
         15     1  2   0.000000000000000E+00   0.901777696657642E+05  1    1    1    4 6          1   0.2500000E+00   0.7500000E+00   0.1000000E+01   0.130000000000000E+04   0.990000000000000E+04   0.338913360595703E+03  1    1    2   25 6          1   0.9775913E+00   0.5165392E+00   0.1000000E+01   0.999103651311172E+04   0.940661569962168E+04   0.320140289306641E+03 PG00
         16     1  2   0.000000000000000E+00   0.845789026522300E+05  1    1    1    4 6          1   0.7500000E+00   0.7500000E+00   0.1000000E+01   0.150000000000000E+04   0.990000000000000E+04   0.338913360595703E+03  1    1    2   25 6          1   0.9722669E+00   0.6384558E+00   0.1000000E+01   0.998890676604705E+04   0.945538232258896E+04   0.320140289306641E+03 PG00
         17     1  2   0.000000000000000E+00   0.802525704891587E+05  1    1    1    5 6          1   0.2500000E+00   0.2500000E+00   0.1000000E+01   0.170000000000000E+04   0.970000000000000E+04   0.338769439697266E+03  1    1    4   25 6          1   0.9649721E+00   0.2629427E+00   0.1000000E+01   0.998598884569280E+04   0.850517707217421E+04   0.320140197753906E+03 PG00
         18     1  2   0.000000000000000E+00   0.756724071075427E+05  1    1    1    5 6          1   0.7500000E+00   0.2500000E+00   0.1000000E+01   0.190000000000000E+04   0.970000000000000E+04   0.338769439697266E+03  1    1    4   25 6          1   0.9588217E+00   0.5510991E+00   0.1000000E+01   0.998352866556663E+04   0.862043965666941E+04   0.320140197753906E+03 PG00
         19     1  2   0.000000000000000E+00   0.795493068046905E+05  1    1    1    5 6          1   0.2500000E+00   0.7500000E+00   0.1000000E+01   0.170000000000000E+04   0.990000000000000E+04   0.338769439697266E+03  1    1    2   25 6          1   0.9664949E+00   0.7472199E+00   0.1000000E+01   0.998659795053547E+04   0.949888797314040E+04   0.320140289306641E+03 PG00
         20     1  2   0.000000000000000E+00   0.750335532704296E+05  1    1    1    5 6          1   0.7500000E+00   0.7500000E+00   0.1000000E+01   0.190000000000000E+04   0.990000000000000E+04   0.338769439697266E+03  1    1    2   25 6          1   0.9602633E+00   0.8468666E+00   0.1000000E+01   0.998410533362556E+04   0.953874663004555E+04   0.320140289306641E+03 PG00
         21     1  2   0.000000000000000E+00   0.714481926699940E+05  1    1    1    6 6          1   0.2500000E+00   0.2500000E+00   0.1000000E+01   0.210000000000000E+04   0.970000000000000E+04   0.338587066650391E+03  1    1    4   25 6          1   0.9523281E+00   0.8181084E+00   0.1000000E+01   0.998093123839212E+04   0.872724337588342E+04   0.320140197753906E+03 PG00
         22     1  2   0.000000000000000E+00   0.674745644123377E+05  1    1    1    6 6          1   0.7500000E+00   0.2500000E+00   0.1000000E+01   0.230000000000000E+04   0.970000000000000E+04   0.338587066650391E+03  1    1    3   25 6          1   0.9452251E+00   0.7115356E-01   0.1000000E+01   0.997809003101886E+04   0.882846142599702E+04   0.320140258789062E+03 PG00
         23     1  2   0.000000000000000E+00   0.708737585039168E+05  1    1    1    6 6          1   0.2500000E+00   0.7500000E+00   0.1000000E+01   0.210000000000000E+04   0.990000000000000E+04   0.338587066650391E+03  1    1    2   25 6          1   0.9535526E+00   0.9381775E+00   0.1000000E+01   0.998142105203514E+04   0.957527100443293E+04   0.320140289306641E+03 PG00
         24     1  2   0.000000000000000E+00   0.669621172403634E+05  1    1    1    6 6          1   0.7500000E+00   0.7500000E+00   0.1000000E+01   0.230000000000000E+04   0.990000000000000E+04   0.338587066650391E+03  1    1    1   25 6          1   0.9462328E+00   0.2382143E-01   0.1000000E+01   0.997849310857523E+04   0.960952857123091E+04   0.320140289306641E+03 PG00
         25     1  2   0.000000000000000E+00   0.638097228673391E+05  1    1    1    7 6          1   0.2500000E+00   0.2500000E+00   0.1000000E+01   0.250000000000000E+04   0.970000000000000E+04   0.338364440917969E+03  1    1    3   25 6          1   0.9371491E+00   0.3241766E+00   0.1000000E+01   0.997485962033109E+04   0.892967062350250E+04   0.320140258789062E+03 PG00
         26     1  2   0.000000000000000E+00   0.597101320521298E+05  1    1    1    7 6          1   0.7500000E+00   0.2500000E+00   0.1000000E+01   0.270000000000000E+04   0.970000000000000E+04   0.338364440917969E+03  1    1    3   25 6          1   0.9283561E+00   0.5766889E+00   0.1000000E+01   0.997134245627687E+04   0.903067555396637E+04   0.320140258789062E+03 PG00
         27     1  2   0.000000000000000E+00   0.634104690059914E+05  1    1    1    7 6          1   0.2500000E+00   0.7500000E+00   0.1000000E+01   0.250000000000000E+04   0.990000000000000E+04   0.338364440917969E+03  1    1    1   25 6          1   0.9381336E+00   0.1083861E+00   0.1000000E+01   0.997525343054350E+04   0.964335444076192E+04   0.320140289306641E+03 PG00
         28     1  2   0.000000000000000E+00   0.593736673798311E+05  1    1    1    7 6          1   0.7500000E+00   0.7500000E+00   0.1000000E+01   0.270000000000000E+04   0.990000000000000E+04   0.338364440917969E+03  1    1    1   25 6          1   0.9292254E+00   0.1932923E+00   0.1000000E+01   0.997169016020517E+04   0.967731692887940E+04   0.320140289306641E+03 PG00
         29     1  2   0.000000000000000E+00   0.556998647304322E+05  1    1    1    8 6          1   0.2500000E+00   0.2500000E+00   0.1000000E+01   0.290000000000000E+04   0.970000000000000E+04   0.338099426269531E+03  1    1    3   25 6          1   0.9188089E+00   0.8170967E+00   0.1000000E+01   0.996752354649587E+04   0.912683867547241E+04   0.320140258789062E+03 PG00
         30     1  2   0.000000000000000E+00   0.519867143919747E+05  1    1    1    8 6          1   0.7500000E+00   0.2500000E+00   0.1000000E+01   0.310000000000000E+04   0.970000000000000E+04   0.338099426269531E+03  1    1    2   25 6          1   0.9082917E+00   0.3586446E-01   0.1000000E+01   0.996331666427811E+04   0.921434578540591E+04   0.320140289306641E+03 PG00
         31     1  2   0.000000000000000E+00   0.554265375894644E+05  1    1    1    8 6          1   0.2500000E+00   0.7500000E+00   0.1000000E+01   0.290000000000000E+04   0.990000000000000E+04   0.338099426269531E+03  1    1    1   25 6          1   0.9193503E+00   0.2736564E+00   0.1000000E+01   0.996774011975835E+04   0.970946255300451E+04   0.320140289306641E+03 PG00
         32     1  2   0.000000000000000E+00   0.517498418008572E+05  1    1    1    8 6          1   0.7500000E+00   0.7500000E+00   0.1000000E+01   0.310000000000000E+04   0.990000000000000E+04   0.338099426269531E+03  1    1    1   25 6          1   0.9083882E+00   0.3465516E+00   0.1000000E+01   0.996335528921904E+04   0.973862062335384E+04   0.320140289306641E+03 PG00
         33     1  2   0.000000000000000E+00   0.483066785244099E+05  1    1    1    9 6          1   0.2500000E+00   0.2500000E+00   0.1000000E+01   0.330000000000000E+04   0.970000000000000E+04   0.337789215087891E+03  1    1    2   25 6          1   0.8960602E+00   0.2449959E+00   0.1000000E+01   0.995842408383881E+04   0.929799836224167E+04   0.320140289306641E+03 PG00
         34     1  2   0.000000000000000E+00   0.446178377860865E+05  1    1    1    9 6          1   0.7500000E+00   0.2500000E+00   0.1000000E+01   0.350000000000000E+04   0.970000000000000E+04   0.337789215087891E+03  1    1    2   25 6          1   0.8822239E+00   0.4610739E+00   0.1000000E+01   0.995288957300589E+04   0.938442955036581E+04   0.320140289306641E+03 PG00
         35     1  2   0.000000000000000E+00   0.480946054790643E+05  1    1    1    9 6          1   0.2500000E+00   0.7500000E+00   0.1000000E+01   0.330000000000000E+04   0.990000000000000E+04   0.337789215087891E+03  1    1    1   25 6          1   0.8961598E+00   0.4161000E+00   0.1000000E+01   0.995846390343305E+04   0.976644000627739E+04   0.320140289306641E+03 PG00
         36     1  2   0.000000000000000E+00   0.444520706898215E+05  1    1    1    9 6          1   0.7500000E+00   0.7500000E+00   0.1000000E+01   0.350000000000000E+04   0.990000000000000E+04   0.337789215087891E+03  1    1    1   25 6          1   0.8823458E+00   0.4878621E+00   0.1000000E+01   0.995293833257982E+04   0.979514484462594E+04   0.320140289306641E+03 PG00
         37     1  2   0.000000000000000E+00   0.401758950623026E+05  1    1    1   10 6          1   0.2500000E+00   0.2500000E+00   0.1000000E+01   0.370000000000000E+04   0.970000000000000E+04   0.337430511474609E+03  1    1    2   25 6          1   0.8663648E+00   0.6656714E+00   0.1000000E+01   0.994654593814812E+04   0.946626855963946E+04   0.320140289306641E+03 PG00
         38     1  2   0.000000000000000E+00   0.357176508731403E+05  1    1    1   10 6          1   0.7500000E+00   0.2500000E+00   0.1000000E+01   0.390000000000000E+04   0.970000000000000E+04   0.337430511474609E+03  1    1    2   25 6          1   0.8478726E+00   0.8834809E+00   0.1000000E+01   0.993914904357564E+04   0.955339237529551E+04   0.320140289306641E+03 PG00
         39     1  2   0.000000000000000E+00   0.400637446413807E+05  1    1    1   10 6          1   0.2500000E+00   0.7500000E+00   0.1000000E+01   0.370000000000000E+04   0.990000000000000E+04   0.337430511474609E+03  1    1    1   25 6          1   0.8665097E+00   0.5557877E+00   0.1000000E+01   0.994660388269499E+04   0.982231508215779E+04   0.320140289306641E+03 PG00
         40     1  2   0.000000000000000E+00   0.356811389697074E+05  1    1    1   10 6          1   0.7500000E+00   0.7500000E+00   0.1000000E+01   0.390000000000000E+04   0.990000000000000E+04   0.337430511474609E+03  1    1    1   25 6          1   0.8479621E+00   0.6279936E+00   0.1000000E+01   0.993918483226724E+04   0.985119743283743E+04   0.320140289306641E+03 PG00
         41     1  2   0.000000000000000E+00   0.155010962363453E+05  1    1    1   11 6          1   0.2500000E+00   0.2500000E+00   0.1000000E+01   0.410000000000000E+04   0.970000000000000E+04   0.337019256591797E+03  1    1    1   25 6          1   0.8245376E+00   0.2280175E+00   0.1000000E+01   0.992981503136826E+04   0.969120698158543E+04   0.320140289306641E+03 PG00
         42     1  2   0.000000000000000E+00   0.143448550507556E+05  1    1    1   11 6          1   0.7500000E+00   0.2500000E+00   0.1000000E+01   0.430000000000000E+04   0.970000000000000E+04   0.337019256591797E+03  1    1    1   25 6          1   0.7951181E+00   0.2299498E+00   0.1000000E+01   0.991804725917970E+04   0.969197990204045E+04   0.320140289306641E+03 PG00
         43     1  2   0.000000000000000E+00   0.155010962363453E+05  1    1    1   11 6          1   0.2500000E+00   0.7500000E+00   0.1000000E+01   0.410000000000000E+04   0.990000000000000E+04   0.337019256591797E+03  1    1    1   25 6          1   0.8245376E+00   0.7426725E+00   0.1000000E+01   0.992981503136826E+04   0.989706899386181E+04   0.320140289306641E+03 PG00
         44     1  2   0.000000000000000E+00   0.143448550507556E+05  1    1    1   11 6          1   0.7500000E+00   0.7500000E+00   0.1000000E+01   0.430000000000000E+04   0.990000000000000E+04   0.337019256591797E+03  1    1    1   25 6          1   0.7951181E+00   0.7433166E+00   0.1000000E+01   0.991804725917970E+04   0.989732663401349E+04   0.320140289306641E+03 PG00
         45     1  2   0.000000000000000E+00   0.132663633200486E+05  1    1    1   12 6          1   0.2500000E+00   0.2500000E+00   0.1000000E+01   0.450000000000000E+04   0.970000000000000E+04   0.336550567626953E+03  1    1    1   25 6          1   0.7656284E+00   0.2317851E+00   0.1000000E+01   0.990625137264571E+04   0.969271403852178E+04   0.320140289306641E+03 PG00
         46     1  2   0.000000000000000E+00   0.122559940503710E+05  1    1    1   12 6          1   0.7500000E+00   0.2500000E+00   0.1000000E+01   0.470000000000000E+04   0.970000000000000E+04   0.336550567626953E+03  1    1    1   25 6          1   0.7360712E+00   0.2335349E+00   0.1000000E+01   0.989442847954960E+04   0.969341394697770E+04   0.320140289306641E+03 PG00
         47     1  2   0.000000000000000E+00   0.132663633200486E+05  1    1    1   12 6          1   0.2500000E+00   0.7500000E+00   0.1000000E+01   0.450000000000000E+04   0.990000000000000E+04   0.336550567626953E+03  1    1    1   25 6          1   0.7656284E+00   0.7439284E+00   0.1000000E+01   0.990625137264571E+04   0.989757134617393E+04   0.320140289306641E+03 PG00
         48     1  2   0.000000000000000E+00   0.122559940503710E+05  1    1    1   12 6          1   0.7500000E+00   0.7500000E+00   0.1000000E+01   0.470000000000000E+04   0.990000000000000E+04   0.336550567626953E+03  1    1    1   25 6          1   0.7360712E+00   0.7445116E+00   0.1000000E+01   0.989442847954960E+04   0.989780464899257E+04   0.320140289306641E+03 PG00
         49     1  2   0.000000000000000E+00   0.113090001858822E+05  1    1    1   13 6          1   0.2500000E+00   0.2500000E+00   0.1000000E+01   0.490000000000000E+04   0.970000000000000E+04   0.336018646240234E+03  1    1    1   25 6          1   0.7064502E+00   0.2351836E+00   0.1000000E+01   0.988258006195026E+04   0.969407343944617E+04   0.320140289306641E+03 PG00
         50     1  2   0.000000000000000E+00   0.104218364805321E+05  1    1    1   13 6          1   0.7500000E+00   0.2500000E+00   0.1000000E+01   0.510000000000000E+04   0.970000000000000E+04   0.336018646240234E+03  1    1    1   25 6          1   0.6767688E+00   0.2367360E+00   0.1000000E+01   0.987070750885025E+04   0.969469440001475E+04   0.320140289306641E+03 PG00
         51     1  2   0.000000000000000E+00   0.113090001858822E+05  1    1    1   13 6          1   0.2500000E+00   0.7500000E+00   0.1000000E+01   0.490000000000000E+04   0.990000000000000E+04   0.336018646240234E+03  1    1    1   25 6          1   0.7064502E+00   0.7450612E+00   0.1000000E+01   0.988258006195026E+04   0.989802447981539E+04   0.320140289306641E+03 PG00
         52     1  2   0.000000000000000E+00   0.104218364805321E+05  1    1    1   13 6          1   0.7500000E+00   0.7500000E+00   0.1000000E+01   0.510000000000000E+04   0.990000000000000E+04   0.336018646240234E+03  1    1    1   25 6          1   0.6767688E+00   0.7455787E+00   0.1000000E+01   0.987070750885025E+04   0.989823146667158E+04   0.320140289306641E+03 PG00
         53     1  2   0.000000000000000E+00   0.958891554925364E+04  1    1    1   14 6          1   0.2500000E+00   0.2500000E+00   0.1000000E+01   0.530000000000000E+04   0.970000000000000E+04   0.335416564941406E+03  1    1    1   25 6          1   0.6470306E+00   0.2381837E+00   0.1000000E+01   0.985881224110549E+04   0.969527349734177E+04   0.320140289306641E+03 PG00
         54     1  2   0.000000000000000E+00   0.880692825670223E+04  1    1    1   14 6          1   0.7500000E+00   0.2500000E+00   0.1000000E+01   0.550000000000000E+04   0.970000000000000E+04   0.335416564941406E+03  1    1    1   25 6          1   0.6172397E+00   0.2395332E+00   0.1000000E+01   0.984689586403769E+04   0.969581327618765E+04   0.320140289306641E+03 PG00
         55     1  2   0.000000000000000E+00   0.958891554925364E+04  1    1    1   14 6          1   0.2500000E+00   0.7500000E+00   0.1000000E+01   0.530000000000000E+04   0.990000000000000E+04   0.335416564941406E+03  1    1    1   25 6          1   0.6470306E+00   0.7460612E+00   0.1000000E+01   0.985881224110549E+04   0.989842449911392E+04   0.320140289306641E+03 PG00
         56     1  2   0.000000000000000E+00   0.880692825670223E+04  1    1    1   14 6          1   0.7500000E+00   0.7500000E+00   0.1000000E+01   0.550000000000000E+04   0.990000000000000E+04   0.335416564941406E+03  1    1    1   25 6          1   0.6172397E+00   0.7465111E+00   0.1000000E+01   0.984689586403769E+04   0.989860442539588E+04   0.320140289306641E+03 PG00
         57     1  2   0.000000000000000E+00   0.807116425015869E+04  1    1    1   15 6          1   0.2500000E+00   0.2500000E+00   0.1000000E+01   0.570000000000000E+04   0.970000000000000E+04   0.334736114501953E+03  1    1    1   25 6          1   0.5873992E+00   0.2407793E+00   0.1000000E+01   0.983495969902681E+04   0.969631171824224E+04   0.320140289306641E+03 PG00
         58     1  2   0.000000000000000E+00   0.737898037627617E+04  1    1    1   15 6          1   0.7500000E+00   0.2500000E+00   0.1000000E+01   0.590000000000000E+04   0.970000000000000E+04   0.334736114501953E+03  1    1    1   25 6          1   0.5575136E+00   0.2419280E+00   0.1000000E+01   0.982300542464488E+04   0.969677119509222E+04   0.320140289306641E+03 PG00
         59     1  2   0.000000000000000E+00   0.807116425015869E+04  1    1    1   15 6          1   0.2500000E+00   0.7500000E+00   0.1000000E+01   0.570000000000000E+04   0.990000000000000E+04   0.334736114501953E+03  1    1    1   25 6          1   0.5873992E+00   0.7469264E+00   0.1000000E+01   0.983495969902681E+04   0.989877057274741E+04   0.320140289306641E+03 PG00
         60     1  2   0.000000000000000E+00   0.737898037627617E+04  1    1    1   15 6          1   0.7500000E+00   0.7500000E+00   0.1000000E+01   0.590000000000000E+04   0.990000000000000E+04   0.334736114501953E+03  1    1    1   25 6          1   0.5575136E+00   0.7473093E+00   0.1000000E+01   0.982300542464488E+04   0.989892373169741E+04   0.320140289306641E+03 PG00
         61     1  2   0.000000000000000E+00   0.672709362880127E+04  1    1    1   16 6          1   0.2500000E+00   0.2500000E+00   0.1000000E+01   0.610000000000000E+04   0.970000000000000E+04   0.333967559814453E+03  1    1    1   25 6          1   0.5275854E+00   0.2429768E+00   0.1000000E+01   0.981103414967528E+04   0.969719070696238E+04   0.320140289306641E+03 PG00
         62     1  2   0.000000000000000E+00   0.611554286637623E+04  1    1    1   16 6          1   0.7500000E+00   0.2500000E+00   0.1000000E+01   0.630000000000000E+04   0.970000000000000E+04   0.333967559814453E+03  1    1    1   25 6          1   0.4976183E+00   0.2439303E+00   0.1000000E+01   0.979904732417794E+04   0.969757212480516E+04   0.320140289306641E+03 PG00
         63     1  2   0.000000000000000E+00   0.672709362880127E+04  1    1    1   16 6          1   0.2500000E+00   0.7500000E+00   0.1000000E+01   0.610000000000000E+04   0.990000000000000E+04   0.333967559814453E+03  1    1    1   25 6          1   0.5275854E+00   0.7476589E+00   0.1000000E+01   0.981103414967528E+04   0.989906356898746E+04   0.320140289306641E+03 PG00
         64     1  2   0.000000000000000E+00   0.611554286637623E+04  1    1    1   16 6          1   0.7500000E+00   0.7500000E+00   0.1000000E+01   0.630000000000000E+04   0.990000000000000E+04   0.333967559814453E+03  1    1    1   25 6          1   0.4976183E+00   0.7479768E+00   0.1000000E+01   0.979904732417794E+04   0.989919070826839E+04   0.320140289306641E+03 PG00
         65     1  2   0.000000000000000E+00   0.552492942413690E+04  1    1    1   17 6          1   0.2500000E+00   0.2500000E+00   0.1000000E+01   0.650000000000000E+04   0.970000000000000E+04   0.333099487304688E+03  1    1    1   25 6          1   0.4676128E+00   0.2447963E+00   0.1000000E+01   0.978704512341217E+04   0.969791851854870E+04   0.320140289306641E+03 PG00
         66     1  2   0.000000000000000E+00   0.498508655795820E+04  1    1    1   17 6          1   0.7500000E+00   0.2500000E+00   0.1000000E+01   0.670000000000000E+04   0.970000000000000E+04   0.333099487304688E+03  1    1    1   25 6          1   0.4375749E+00   0.2455715E+00   0.1000000E+01   0.977502995680862E+04   0.969822858977178E+04   0.320140289306641E+03 PG00
         67     1  2   0.000000000000000E+00   0.552492942413690E+04  1    1    1   17 6          1   0.2500000E+00   0.7500000E+00   0.1000000E+01   0.650000000000000E+04   0.990000000000000E+04   0.333099487304688E+03  1    1    1   25 6          1   0.4676128E+00   0.7482654E+00   0.1000000E+01   0.978704512341217E+04   0.989930617284956E+04   0.320140289306641E+03 PG00
         68     1  2   0.000000000000000E+00   0.498508655795820E+04  1    1    1   17 6          1   0.7500000E+00   0.7500000E+00   0.1000000E+01   0.670000000000000E+04   0.990000000000000E+04   0.333099487304688E+03  1    1    1   25 6          1   0.4375749E+00   0.7485238E+00   0.1000000E+01   0.977502995680862E+04   0.989940952992393E+04   0.320140289306641E+03 PG00
         69     1  2   0.000000000000000E+00   0.447693127760539E+04  1    1    1   18 6          1   0.2500000E+00   0.2500000E+00   0.1000000E+01   0.690000000000000E+04   0.970000000000000E+04   0.332118286132812E+03  1    1    1   25 6          1   0.4075071E+00   0.2462641E+00   0.1000000E+01   0.976300285844989E+04   0.969850562604497E+04   0.320140289306641E+03 PG00
         70     1  2   0.000000000000000E+00   0.399916679253598E+04  1    1    1   18 6          1   0.7500000E+00   0.2500000E+00   0.1000000E+01   0.710000000000000E+04   0.970000000000000E+04   0.332118286132812E+03  1    1    1   25 6          1   0.3774135E+00   0.2468790E+00   0.1000000E+01   0.975096540322419E+04   0.969875158199157E+04   0.320140289306641E+03 PG00
         71     1  2   0.000000000000000E+00   0.447693127760539E+04  1    1    1   18 6          1   0.2500000E+00   0.7500000E+00   0.1000000E+01   0.690000000000000E+04   0.990000000000000E+04   0.332118286132812E+03  1    1    1   25 6          1   0.4075071E+00   0.7487547E+00   0.1000000E+01   0.976300285844989E+04   0.989950187534832E+04   0.320140289306641E+03 PG00
         72     1  2   0.000000000000000E+00   0.399916679253598E+04  1    1    1   18 6          1   0.7500000E+00   0.7500000E+00   0.1000000E+01   0.710000000000000E+04   0.990000000000000E+04   0.332118286132812E+03  1    1    1   25 6          1   0.3774135E+00   0.7489597E+00   0.1000000E+01   0.975096540322419E+04   0.989958386066386E+04   0.320140289306641E+03 PG00
         73     1  2   0.000000000000000E+00   0.354964604805735E+04  1    1    1   19 6          1   0.2500000E+00   0.2500000E+00   0.1000000E+01   0.730000000000000E+04   0.970000000000000E+04   0.331007965087891E+03  1    1    1   25 6          1   0.3472961E+00   0.2474216E+00   0.1000000E+01   0.973891843639388E+04   0.969896865431708E+04   0.320140289306641E+03 PG00
         74     1  2   0.000000000000000E+00   0.312721923813048E+04  1    1    1   19 6          1   0.7500000E+00   0.2500000E+00   0.1000000E+01   0.750000000000000E+04   0.970000000000000E+04   0.331007965087891E+03  1    1    1   25 6          1   0.3171584E+00   0.2478965E+00   0.1000000E+01   0.972686336998938E+04   0.969915858806709E+04   0.320140289306641E+03 PG00
         75     1  2   0.000000000000000E+00   0.354964604805735E+04  1    1    1   19 6          1   0.2500000E+00   0.7500000E+00   0.1000000E+01   0.730000000000000E+04   0.990000000000000E+04   0.331007965087891E+03  1    1    1   25 6          1   0.3472961E+00   0.7491405E+00   0.1000000E+01   0.973891843639388E+04   0.989965621810569E+04   0.320140289306641E+03 PG00
         76     1  2   0.000000000000000E+00   0.312721923813048E+04  1    1    1   19 6          1   0.7500000E+00   0.7500000E+00   0.1000000E+01   0.750000000000000E+04   0.990000000000000E+04   0.331007965087891E+03  1    1    1   25 6          1   0.3171584E+00   0.7492988E+00   0.1000000E+01   0.972686336998938E+04   0.989971952935570E+04   0.320140289306641E+03 PG00
         77     1  2   0.000000000000000E+00   0.273003821034659E+04  1    1    1   20 6          1   0.2500000E+00   0.2500000E+00   0.1000000E+01   0.770000000000000E+04   0.970000000000000E+04   0.329749511718750E+03  1    1    1   25 6          1   0.2870023E+00   0.2483096E+00   0.1000000E+01   0.971480091453708E+04   0.969932383394606E+04   0.320140289306641E+03 PG00
         78     1  2   0.000000000000000E+00   0.235705961533047E+04  1    1    1   20 6          1   0.7500000E+00   0.2500000E+00   0.1000000E+01   0.790000000000000E+04   0.970000000000000E+04   0.329749511718750E+03  1    1    1   25 6          1   0.2568308E+00   0.2486648E+00   0.1000000E+01   0.970273230663754E+04   0.969946591750884E+04   0.320140289306641E+03 PG00