MODPATH_TIMESERIES_FILE 6 0                                                     
 1   0.209999984375000E+06
END HEADER
    0    11   0.000000000000000E+00          1     1   0.399960000000000E+04   0.820000000000000E+04   0.337432128906250E+03  1    1    5   10   0.9990000E+00   0.5000000E+00   0.1000000E+01
    0    11   0.000000000000000E+00          2     1   0.394120000000000E+04   0.834120000000000E+04   0.337432128906250E+03  1    1    5   10   0.8530000E+00   0.8530000E+00   0.1000000E+01
    0    11   0.000000000000000E+00          3     1   0.380000000000000E+04   0.839960000000000E+04   0.337432128906250E+03  1    1    5   10   0.5000000E+00   0.9990000E+00   0.1000000E+01
    0    11   0.000000000000000E+00          4     1   0.365880000000000E+04   0.834120000000000E+04   0.337432128906250E+03  1    1    5   10   0.1470000E+00   0.8530000E+00   0.1000000E+01
    0    11   0.000000000000000E+00          5     1   0.360040000000000E+04   0.820000000000000E+04   0.337432128906250E+03  1    1    5   10   0.1000000E-02   0.5000000E+00   0.1000000E+01
    0    11   0.000000000000000E+00          6     1   0.365880000000000E+04   0.805880000000000E+04   0.337432128906250E+03  1    1    5   10   0.1470000E+00   0.1470000E+00   0.1000000E+01
    0    11   0.000000000000000E+00          7     1   0.380000000000000E+04   0.800040000000000E+04   0.337432128906250E+03  1    1    5   10   0.5000000E+00   0.1000000E-02   0.1000000E+01
    0    11   0.000000000000000E+00          8     1   0.394120000000000E+04   0.805880000000000E+04   0.337432128906250E+03  1    1    5   10   0.8530000E+00   0.1470000E+00   0.1000000E+01
    0    12   0.000000000000000E+00          1     1   0.399960000000000E+04   0.820000000000000E+04   0.337410675048828E+03  1    1    5   10   0.9990000E+00   0.5000000E+00   0.1000000E+01
    0    12   0.000000000000000E+00          2     1   0.394120000000000E+04   0.834120000000000E+04   0.337410675048828E+03  1    1    5   10   0.8530000E+00   0.8530000E+00   0.1000000E+01
    0    12   0.000000000000000E+00          3     1   0.380000000000000E+04   0.839960000000000E+04   0.337410675048828E+03  1    1    5   10   0.5000000E+00   0.9990000E+00   0.1000000E+01
    0    12   0.000000000000000E+00          4     1   0.365880000000000E+04   0.834120000000000E+04   0.337410675048828E+03  1    1    5   10   0.1470000E+00   0.8530000E+00   0.1000000E+01
    0    12   0.000000000000000E+00          5     1   0.360040000000000E+04   0.820000000000000E+04   0.337410675048828E+03  1    1    5   10   0.1000000E-02   0.5000000E+00   0.1000000E+01
    0    12   0.000000000000000E+00          6     1   0.365880000000000E+04   0.805880000000000E+04   0.337410675048828E+03  1    1    5   10   0.1470000E+00   0.1470000E+00   0.1000000E+01
    0    12   0.000000000000000E+00          7     1   0.380000000000000E+04   0.800040000000000E+04   0.337410675048828E+03  1    1    5   10   0.5000000E+00   0.1000000E-02   0.1000000E+01
    0    12   0.000000000000000E+00          8     1   0.394120000000000E+04   0.805880000000000E+04   0.337410675048828E+03  1    1    5   10   0.8530000E+00   0.1470000E+00   0.1000000E+01
    1    12   0.100000000000000E+04          1     1   0.417691683454418E+04   0.819623101428959E+04   0.320806492353191E+03  1    1    5   11   0.4422921E+00   0.4905775E+00   0.7583262E+00
    1    12   0.100000000000000E+04          2     1   0.411479686288601E+04   0.833774994368285E+04   0.320835799611346E+03  1    1    5   11   0.2869922E+00   0.8443749E+00   0.7587637E+00
    1    12   0.100000000000000E+04          3     1   0.396517936832226E+04   0.839638459252551E+04   0.321183632118735E+03  1    1    5   10   0.9129484E+00   0.9909615E+00   0.7592808E+00
    1    12   0.100000000000000E+04          4     1   0.381642193202307E+04   0.833789363159085E+04   0.321183632118735E+03  1    1    5   10   0.5410548E+00   0.8447341E+00   0.7592808E+00
    1    12   0.100000000000000E+04          5     1   0.375489619349705E+04   0.819647370549540E+04   0.321183632118735E+03  1    1    5   10   0.3872405E+00   0.4911843E+00   0.7592808E+00
    1    12   0.100000000000000E+04          6     1   0.381642193202307E+04   0.805505377939995E+04   0.321183632118735E+03  1    1    5   10   0.5410548E+00   0.1376344E+00   0.7592808E+00
    1    12   0.100000000000000E+04          7     1   0.396544535436730E+04   0.799656287606047E+04   0.321170799561066E+03  1    1    6   10   0.9136134E+00   0.9914072E+00   0.7591939E+00
    1    12   0.100000000000000E+04          8     1   0.411479686288601E+04   0.805487938674799E+04   0.320835799611346E+03  1    1    5   11   0.2869922E+00   0.1371985E+00   0.7587637E+00
    2    12   0.200000000000000E+04          1     1   0.436451397236362E+04   0.819245496356246E+04   0.305528130984511E+03  1    1    5   11   0.9112849E+00   0.4811374E+00   0.5302849E+00
    2    12   0.200000000000000E+04          2     1   0.429879338130806E+04   0.833421785442810E+04   0.305555784665410E+03  1    1    5   11   0.7469835E+00   0.8355446E+00   0.5306976E+00
    2    12   0.200000000000000E+04          3     1   0.414029279550778E+04   0.839299659516443E+04   0.305593219931605E+03  1    1    5   11   0.3507320E+00   0.9824915E+00   0.5312564E+00
    2    12   0.200000000000000E+04          4     1   0.398248025009869E+04   0.833458211334675E+04   0.305805050528960E+03  1    1    5   10   0.9562006E+00   0.8364553E+00   0.5311481E+00
    2    12   0.200000000000000E+04          5     1   0.391766147439370E+04   0.819294191860991E+04   0.305805050528960E+03  1    1    5   10   0.7941537E+00   0.4823548E+00   0.5311481E+00
    2    12   0.200000000000000E+04          6     1   0.398248025009869E+04   0.805130172387307E+04   0.305805050528960E+03  1    1    5   10   0.9562006E+00   0.1282543E+00   0.5311481E+00
    2    12   0.200000000000000E+04          7     1   0.414084843833231E+04   0.799249986232755E+04   0.305567509380655E+03  1    1    6   11   0.3521211E+00   0.9812497E+00   0.5309507E+00
    2    12   0.200000000000000E+04          8     1   0.429879338130806E+04   0.805085966295659E+04   0.305555784665410E+03  1    1    5   11   0.7469835E+00   0.1271492E+00   0.5306976E+00
    3    12   0.300000000000000E+04          1     1   0.456447596451471E+04   0.818853831731769E+04   0.291034630132741E+03  1    1    5   12   0.4111899E+00   0.4713458E+00   0.3161737E+00
    3    12   0.300000000000000E+04          2     1   0.449422709202518E+04   0.833060993054300E+04   0.291036949849353E+03  1    1    5   12   0.2355677E+00   0.8265248E+00   0.3162086E+00
    3    12   0.300000000000000E+04          3     1   0.432576711804181E+04   0.838955974443711E+04   0.291173223447122E+03  1    1    5   11   0.8144178E+00   0.9738994E+00   0.3160268E+00
    3    12   0.300000000000000E+04          4     1   0.415869729043603E+04   0.833106720057053E+04   0.291162621270459E+03  1    1    5   11   0.3967432E+00   0.8276680E+00   0.3158685E+00
    3    12   0.300000000000000E+04          5     1   0.408978450813626E+04   0.818927913850076E+04   0.291142552947461E+03  1    1    5   11   0.2244613E+00   0.4731978E+00   0.3155690E+00
    3    12   0.300000000000000E+04          6     1   0.415869729043603E+04   0.804730330118770E+04   0.291162621270459E+03  1    1    5   11   0.3967432E+00   0.1182583E+00   0.3158685E+00
    3    12   0.300000000000000E+04          7     1   0.432658536121319E+04   0.798837504744672E+04   0.291127626046375E+03  1    1    6   11   0.8164634E+00   0.9709376E+00   0.3153926E+00
    3    12   0.300000000000000E+04          8     1   0.449422709202518E+04   0.804674746618333E+04   0.291036949849353E+03  1    1    5   12   0.2355677E+00   0.1168687E+00   0.3162086E+00
    4    12   0.400000000000000E+04          1     1   0.477734632840950E+04   0.818458444005421E+04   0.277671881288933E+03  1    1    5   12   0.9433658E+00   0.4614611E+00   0.1153168E+00
    4    12   0.400000000000000E+04          2     1   0.470265000048218E+04   0.832691771156267E+04   0.277674058853671E+03  1    1    5   12   0.7566250E+00   0.8172943E+00   0.1153496E+00
    4    12   0.400000000000000E+04          3     1   0.452304462675315E+04   0.838603030888149E+04   0.277614473862144E+03  1    1    5   12   0.3076116E+00   0.9650758E+00   0.1144539E+00
    4    12   0.400000000000000E+04          4     1   0.434523838070464E+04   0.832752359107707E+04   0.277556829567527E+03  1    1    5   11   0.8630960E+00   0.8188090E+00   0.1127915E+00
    4    12   0.400000000000000E+04          5     1   0.427233125175509E+04   0.818549110358283E+04   0.277537893541597E+03  1    1    5   11   0.6808281E+00   0.4637278E+00   0.1125089E+00
    4    12   0.400000000000000E+04          6     1   0.434523838070464E+04   0.804327051714354E+04   0.277556829567527E+03  1    1    5   11   0.8630960E+00   0.1081763E+00   0.1127915E+00
    4    12   0.400000000000000E+04          7     1   0.452410391038657E+04   0.798412758114581E+04   0.277542242007911E+03  1    1    6   12   0.3102598E+00   0.9603190E+00   0.1133858E+00
    4    12   0.400000000000000E+04          8     1   0.470265000048218E+04   0.804253244772612E+04   0.277674058853671E+03  1    1    5   12   0.7566250E+00   0.1063311E+00   0.1153496E+00
    5    12   0.500000000000000E+04          1     1   0.500574076796721E+04   0.818055996283585E+04   0.265399884497241E+03  1    2    5   13   0.5143519E+00   0.4513999E+00   0.9079977E+00
    5    12   0.500000000000000E+04          2     1   0.492516298365221E+04   0.832318037128110E+04   0.265323029143826E+03  1    2    5   13   0.3129075E+00   0.8079509E+00   0.9064606E+00
    5    12   0.500000000000000E+04          3     1   0.473335714367365E+04   0.838243161635093E+04   0.265077882717922E+03  1    2    5   12   0.8333929E+00   0.9560790E+00   0.9015577E+00
    5    12   0.500000000000000E+04          4     1   0.454362319795870E+04   0.832385833379688E+04   0.264921352419787E+03  1    2    5   12   0.3590580E+00   0.8096458E+00   0.8984270E+00
    5    12   0.500000000000000E+04          5     1   0.446573259520119E+04   0.818163113193994E+04   0.264814570662812E+03  1    2    5   12   0.1643315E+00   0.4540778E+00   0.8962914E+00
    5    12   0.500000000000000E+04          6     1   0.454362319795870E+04   0.803908887987904E+04   0.264921352419787E+03  1    2    5   12   0.3590580E+00   0.9772220E-01   0.8984270E+00
    5    12   0.500000000000000E+04          7     1   0.473460874559801E+04   0.797979014819113E+04   0.264971706798345E+03  1    2    6   12   0.8365219E+00   0.9494754E+00   0.8994341E+00
    5    12   0.500000000000000E+04          8     1   0.492516298365221E+04   0.803826193267014E+04   0.265323029143826E+03  1    2    5   13   0.3129075E+00   0.9565483E-01   0.9064606E+00
    6    12   0.600000000000000E+04          1     1   0.525088827486618E+04   0.817651764329280E+04   0.254183358213301E+03  1    2    5   14   0.1272207E+00   0.4412941E+00   0.6836672E+00
    6    12   0.600000000000000E+04          2     1   0.516421706057676E+04   0.831939832775831E+04   0.254002696019341E+03  1    2    5   13   0.9105427E+00   0.7984958E+00   0.6800539E+00
    6    12   0.600000000000000E+04          3     1   0.495808898234680E+04   0.837877804341421E+04   0.253656718477707E+03  1    2    5   13   0.3952225E+00   0.9469451E+00   0.6731344E+00
    6    12   0.600000000000000E+04          4     1   0.475516881041664E+04   0.832013110911640E+04   0.253200043291012E+03  1    2    5   12   0.8879220E+00   0.8003278E+00   0.6640009E+00
    6    12   0.600000000000000E+04          5     1   0.467202764147441E+04   0.817763911946430E+04   0.253100189673403E+03  1    2    5   12   0.6800691E+00   0.4440978E+00   0.6620038E+00
    6    12   0.600000000000000E+04          6     1   0.475516881041664E+04   0.803483149307171E+04   0.253200043291012E+03  1    2    5   12   0.8879220E+00   0.8707873E-01   0.6640009E+00
    6    12   0.600000000000000E+04          7     1   0.495948663133863E+04   0.797538002245576E+04   0.253514314011514E+03  1    2    6   13   0.3987166E+00   0.9384501E+00   0.6702863E+00
    6    12   0.600000000000000E+04          8     1   0.516421706057676E+04   0.803393638957317E+04   0.254002696019341E+03  1    2    5   13   0.9105427E+00   0.8484097E-01   0.6800539E+00
    7    12   0.700000000000000E+04          1     1   0.551599645017881E+04   0.817251441758081E+04   0.244237607294501E+03  1    2    5   14   0.7899911E+00   0.4312860E+00   0.4847521E+00
    7    12   0.700000000000000E+04          2     1   0.542204027574980E+04   0.831565440130103E+04   0.243996346992887E+03  1    2    5   14   0.5551007E+00   0.7891360E+00   0.4799269E+00
    7    12   0.700000000000000E+04          3     1   0.519961498096560E+04   0.837510205589564E+04   0.243171570875789E+03  1    2    5   13   0.9990375E+00   0.9377551E+00   0.4634314E+00
    7    12   0.700000000000000E+04          4     1   0.498149561135300E+04   0.831635418653251E+04   0.242653145065826E+03  1    2    5   13   0.4537390E+00   0.7908855E+00   0.4530629E+00
    7    12   0.700000000000000E+04          5     1   0.489236527336181E+04   0.817361491726401E+04   0.242368831259585E+03  1    2    5   13   0.2309132E+00   0.4340373E+00   0.4473766E+00
    7    12   0.700000000000000E+04          6     1   0.498149561135300E+04   0.803051300900736E+04   0.242653145065826E+03  1    2    5   13   0.4537390E+00   0.7628252E-01   0.4530629E+00
    7    12   0.700000000000000E+04          7     1   0.520109221919773E+04   0.797094228641449E+04   0.242989478226338E+03  1    2    6   14   0.2730548E-02   0.9273557E+00   0.4597896E+00
    7    12   0.700000000000000E+04          8     1   0.542204027574980E+04   0.802965760057551E+04   0.243996346992887E+03  1    2    5   14   0.5551007E+00   0.7414400E-01   0.4799269E+00
    8    12   0.800000000000000E+04          1     1   0.580419444125423E+04   0.816862363601517E+04   0.235623134594366E+03  1    2    5   15   0.5104861E+00   0.4215591E+00   0.3124627E+00
    8    12   0.800000000000000E+04          2     1   0.570176575853294E+04   0.831196590147812E+04   0.235144615138906E+03  1    2    5   15   0.2544144E+00   0.7799148E+00   0.3028923E+00
    8    12   0.800000000000000E+04          3     1   0.546039939608039E+04   0.837146970579349E+04   0.234100036213498E+03  1    2    5   14   0.6509985E+00   0.9286743E+00   0.2820007E+00
    8    12   0.800000000000000E+04          4     1   0.522478934890402E+04   0.831256435507115E+04   0.233027657762438E+03  1    2    5   14   0.6197337E-01   0.7814109E+00   0.2605532E+00
    8    12   0.800000000000000E+04          5     1   0.512895705985317E+04   0.816954756837115E+04   0.232691778029123E+03  1    2    5   13   0.8223926E+00   0.4238689E+00   0.2538356E+00
    8    12   0.800000000000000E+04          6     1   0.522478934890402E+04   0.802617903316417E+04   0.233027657762438E+03  1    2    5   14   0.6197337E-01   0.6544758E-01   0.2605532E+00
    8    12   0.800000000000000E+04          7     1   0.546189116550190E+04   0.796656400395564E+04   0.233876770609910E+03  1    2    6   14   0.6547279E+00   0.9164100E+00   0.2775354E+00
    8    12   0.800000000000000E+04          8     1   0.570176575853294E+04   0.802544667442830E+04   0.235144615138906E+03  1    2    5   15   0.2544144E+00   0.6361669E-01   0.3028923E+00
    9    12   0.900000000000000E+04          1     1   0.612002551539597E+04   0.816487493193481E+04   0.228351646880401E+03  1    2    5   16   0.3000638E+00   0.4121873E+00   0.1670329E+00
    9    12   0.900000000000000E+04          2     1   0.600755401754555E+04   0.830837654525713E+04   0.227570312276715E+03  1    2    5   16   0.1888504E-01   0.7709414E+00   0.1514062E+00
    9    12   0.900000000000000E+04          3     1   0.574354034290104E+04   0.836790423299478E+04   0.226188691798826E+03  1    2    5   15   0.3588509E+00   0.9197606E+00   0.1237738E+00
    9    12   0.900000000000000E+04          4     1   0.548769665978048E+04   0.830881526317218E+04   0.224763205265194E+03  1    2    5   14   0.7192416E+00   0.7720382E+00   0.9526411E-01
    9    12   0.900000000000000E+04          5     1   0.538387726654924E+04   0.816551445392674E+04   0.224253760703399E+03  1    2    5   14   0.4596932E+00   0.4137861E+00   0.8507521E-01
    9    12   0.900000000000000E+04          6     1   0.548769665978048E+04   0.802189497652480E+04   0.224763205265194E+03  1    2    5   14   0.7192416E+00   0.5473744E-01   0.9526411E-01
    9    12   0.900000000000000E+04          7     1   0.574496874736754E+04   0.796227721762630E+04   0.225929748102214E+03  1    2    6   15   0.3624219E+00   0.9056930E+00   0.1185950E+00
    9    12   0.900000000000000E+04          8     1   0.600755401754555E+04   0.802135668239888E+04   0.227570312276715E+03  1    2    5   16   0.1888504E-01   0.5339171E-01   0.1514062E+00
   10    12   0.100000000000000E+05          1     1   0.646947512232288E+04   0.816134948919898E+04   0.222615452573505E+03  1    2    5   17   0.1736878E+00   0.4033737E+00   0.5230905E-01
   10    12   0.100000000000000E+05          2     1   0.634468011207612E+04   0.830501518431171E+04   0.221674043625659E+03  1    2    5   16   0.8617003E+00   0.7625380E+00   0.3348087E-01
   10    12   0.100000000000000E+05          3     1   0.602762336591707E+04   0.836470545719941E+04   0.219568748758139E+03  1    3    5   16   0.6905841E-01   0.9117636E+00   0.9784374E+00
   10    12   0.100000000000000E+05          4     1   0.566977177659920E+04   0.830642077590001E+04   0.217691744712421E+03  1    3    5   15   0.1744294E+00   0.7660519E+00   0.8845872E+00
   10    12   0.100000000000000E+05          5     1   0.553362704401555E+04   0.816329355376039E+04   0.216624843365566E+03  1    3    5   14   0.8340676E+00   0.4082339E+00   0.8312422E+00
   10    12   0.100000000000000E+05          6     1   0.566977177659920E+04   0.801916152729582E+04   0.217691744712421E+03  1    3    5   15   0.1744294E+00   0.4790382E-01   0.8845872E+00
   10    12   0.100000000000000E+05          7     1   0.601200492301718E+04   0.795864845143983E+04   0.219275657235357E+03  1    3    6   16   0.3001231E-01   0.8966211E+00   0.9637829E+00
   10    12   0.100000000000000E+05          8     1   0.634468011207612E+04   0.801754177275997E+04   0.221674043625659E+03  1    2    5   16   0.8617003E+00   0.4385443E-01   0.3348087E-01
   11    12   0.110000000000000E+05          1     1   0.670376889695617E+04   0.815934895439208E+04   0.218407154669824E+03  1    3    5   17   0.7594222E+00   0.3983724E+00   0.9203577E+00
   11    12   0.110000000000000E+05          2     1   0.647152128483312E+04   0.830389297675598E+04   0.217328701578408E+03  1    3    5   17   0.1788032E+00   0.7597324E+00   0.8664351E+00
   11    12   0.110000000000000E+05          3     1   0.602765909085342E+04   0.836470368104547E+04   0.214151590631308E+03  1    3    5   16   0.6914773E-01   0.9117592E+00   0.7075795E+00
   11    12   0.110000000000000E+05          4     1   0.566980433419619E+04   0.830641874675065E+04   0.211141381807554E+03  1    3    5   15   0.1745108E+00   0.7660469E+00   0.5570691E+00
   11    12   0.110000000000000E+05          5     1   0.553365847827105E+04   0.816329118143211E+04   0.209092518256720E+03  1    3    5   14   0.8341462E+00   0.4082280E+00   0.4546259E+00
   11    12   0.110000000000000E+05          6     1   0.566980433419619E+04   0.801915910746702E+04   0.211141381807554E+03  1    3    5   15   0.1745108E+00   0.4789777E-01   0.5570691E+00
   11    12   0.110000000000000E+05          7     1   0.601204024485990E+04   0.795864620172779E+04   0.213801396905157E+03  1    3    6   16   0.3010061E-01   0.8966155E+00   0.6900698E+00
   11    12   0.110000000000000E+05          8     1   0.647152128483312E+04   0.801627136565086E+04   0.217328701578408E+03  1    3    5   17   0.1788032E+00   0.4067841E-01   0.8664351E+00
   11    12   0.110000000000000E+05          9     2   0.502996181591059E+04   0.739474709210111E+04   0.319860509833319E+03  1    1    7   13   0.5749045E+00   0.4868677E+00   0.7557597E+00
   11    12   0.110000000000000E+05         10     2   0.496708419587133E+04   0.753614391402494E+04   0.319890677191779E+03  1    1    7   13   0.4177105E+00   0.8403598E+00   0.7562169E+00
   11    12   0.110000000000000E+05         11     2   0.481547505189928E+04   0.759467377312091E+04   0.319938937726982E+03  1    1    7   13   0.3868763E-01   0.9866844E+00   0.7569484E+00
   11    12   0.110000000000000E+05         12     2   0.466531223123706E+04   0.753621331730338E+04   0.320344893360839E+03  1    1    7   12   0.6632806E+00   0.8405333E+00   0.7569907E+00
   11    12   0.110000000000000E+05         13     2   0.460325779138881E+04   0.739485195270730E+04   0.320344893360839E+03  1    1    7   12   0.5081445E+00   0.4871299E+00   0.7569907E+00
   11    12   0.110000000000000E+05         14     2   0.466531223123706E+04   0.725349058811121E+04   0.320344893360839E+03  1    1    7   12   0.6632806E+00   0.1337265E+00   0.7569907E+00
   11    12   0.110000000000000E+05         15     2   0.481562926105004E+04   0.719501577591856E+04   0.319917743312660E+03  1    1    8   13   0.3907315E-01   0.9875394E+00   0.7567784E+00
   11    12   0.110000000000000E+05         16     2   0.496708419587133E+04   0.725340619400690E+04   0.319890677191779E+03  1    1    7   13   0.4177105E+00   0.1335155E+00   0.7562169E+00
   12    12   0.120000000000000E+05          1     1   0.670381182442740E+04   0.815934718562453E+04   0.214293055167261E+03  1    3    5   17   0.7595296E+00   0.3983680E+00   0.7146528E+00
   12    12   0.120000000000000E+05          2     1   0.647156155288681E+04   0.830389134585293E+04   0.213214602075844E+03  1    3    5   17   0.1789039E+00   0.7597284E+00   0.6607301E+00
   12    12   0.120000000000000E+05          3     1   0.602769481614704E+04   0.836470190488946E+04   0.208734432504477E+03  1    3    5   16   0.6923704E-01   0.9117548E+00   0.4367216E+00
   12    12   0.120000000000000E+05          4     1   0.566983689207822E+04   0.830641671759853E+04   0.204591018902687E+03  1    3    5   15   0.1745922E+00   0.7660418E+00   0.2295509E+00
   12    12   0.120000000000000E+05          5     1   0.553368991276927E+04   0.816328880910026E+04   0.201560193147874E+03  1    3    5   14   0.8342248E+00   0.4082220E+00   0.7800966E-01
   12    12   0.120000000000000E+05          6     1   0.566983689207822E+04   0.801915668763493E+04   0.204591018902687E+03  1    3    5   15   0.1745922E+00   0.4789172E-01   0.2295509E+00
   12    12   0.120000000000000E+05          7     1   0.601207556705292E+04   0.795864395201304E+04   0.208327136574957E+03  1    3    6   16   0.3018892E-01   0.8966099E+00   0.4163568E+00
   12    12   0.120000000000000E+05          8     1   0.647156155288681E+04   0.801626946041747E+04   0.213214602075844E+03  1    3    5   17   0.1789039E+00   0.4067365E-01   0.6607301E+00
   12    12   0.120000000000000E+05          9     2   0.527698458926540E+04   0.738951644740511E+04   0.304502263955729E+03  1    1    7   14   0.1924615E+00   0.4737911E+00   0.5277788E+00
   12    12   0.120000000000000E+05         10     2   0.520907359727849E+04   0.753105940708733E+04   0.304516957783983E+03  1    1    7   14   0.2268399E-01   0.8276485E+00   0.5280035E+00
   12    12   0.120000000000000E+05         11     2   0.504693416473528E+04   0.758965727193586E+04   0.304877232219757E+03  1    1    7   13   0.6173354E+00   0.9741432E+00   0.5286509E+00
   12    12   0.120000000000000E+05         12     2   0.488552789331507E+04   0.753118483312380E+04   0.304884723775248E+03  1    1    7   13   0.2138197E+00   0.8279621E+00   0.5287645E+00
   12    12   0.120000000000000E+05         13     2   0.481896624562005E+04   0.738968906368427E+04   0.304875162465340E+03  1    1    7   13   0.4741561E-01   0.4742227E+00   0.5286196E+00
   12    12   0.120000000000000E+05         14     2   0.488552789331507E+04   0.724813123229256E+04   0.304884723775248E+03  1    1    7   13   0.2138197E+00   0.1203281E+00   0.5287645E+00
   12    12   0.120000000000000E+05         15     2   0.504714817105589E+04   0.718951654651583E+04   0.304831400926833E+03  1    1    8   13   0.6178704E+00   0.9737914E+00   0.5280618E+00
   12    12   0.120000000000000E+05         16     2   0.520907359727849E+04   0.724797867185525E+04   0.304516957783983E+03  1    1    7   14   0.2268399E-01   0.1199467E+00   0.5280035E+00
   13    12   0.130000000000000E+05          1     1   0.670385475239018E+04   0.815934541685529E+04   0.210178955664698E+03  1    3    5   17   0.7596369E+00   0.3983635E+00   0.5089478E+00
   13    12   0.130000000000000E+05          2     1   0.647160182140161E+04   0.830388971494832E+04   0.209100502573281E+03  1    3    5   17   0.1790046E+00   0.7597243E+00   0.4550251E+00
   13    12   0.130000000000000E+05          3     1   0.602773054179795E+04   0.836470012873139E+04   0.203317274377646E+03  1    3    5   16   0.6932635E-01   0.9117503E+00   0.1658637E+00
   13    12   0.130000000000000E+05          4     1   0.571335221931805E+04   0.828630194394517E+04   0.198050287640186E+03  1    4    5   15   0.2833805E+00   0.7157549E+00   0.9805029E+00
   13    12   0.130000000000000E+05          5     1   0.565012846551921E+04   0.810138907551079E+04   0.194443337900992E+03  1    4    5   15   0.1253212E+00   0.2534727E+00   0.9444334E+00
   13    12   0.130000000000000E+05          6     1   0.571292819143834E+04   0.799493915315758E+04   0.198046311543421E+03  1    4    6   15   0.2823205E+00   0.9873479E+00   0.9804631E+00
   13    12   0.130000000000000E+05          7     1   0.601211088959625E+04   0.795864170229559E+04   0.202852876244756E+03  1    3    6   16   0.3027722E-01   0.8966043E+00   0.1426438E+00
   13    12   0.130000000000000E+05          8     1   0.647160182140161E+04   0.801626755518227E+04   0.209100502573281E+03  1    3    5   17   0.1790046E+00   0.4066889E-01   0.4550251E+00
   13    12   0.130000000000000E+05          9     2   0.554415456460024E+04   0.738434621240173E+04   0.290674812182821E+03  1    1    7   14   0.8603864E+00   0.4608655E+00   0.3162612E+00
   13    12   0.130000000000000E+05         10     2   0.547104194107756E+04   0.752605271435836E+04   0.290688444670546E+03  1    1    7   14   0.6776049E+00   0.8151318E+00   0.3164697E+00
   13    12   0.130000000000000E+05         11     2   0.529533772136776E+04   0.758466592673997E+04   0.290668714951905E+03  1    1    7   14   0.2383443E+00   0.9616648E+00   0.3161679E+00
   13    12   0.130000000000000E+05         12     2   0.512181389652280E+04   0.752609117070332E+04   0.290810704032859E+03  1    1    7   13   0.8045347E+00   0.8152279E+00   0.3154378E+00
   13    12   0.130000000000000E+05         13     2   0.505066591414253E+04   0.738442343448690E+04   0.290801770027021E+03  1    1    7   13   0.6266648E+00   0.4610586E+00   0.3153024E+00
   13    12   0.130000000000000E+05         14     2   0.512181389652280E+04   0.724269356089137E+04   0.290810704032859E+03  1    1    7   13   0.8045347E+00   0.1067339E+00   0.3154378E+00
   13    12   0.130000000000000E+05         15     2   0.529547843316892E+04   0.718405397301126E+04   0.290586290468917E+03  1    1    8   14   0.2386961E+00   0.9601349E+00   0.3149694E+00
   13    12   0.130000000000000E+05         16     2   0.547104194107756E+04   0.724264490056734E+04   0.290688444670546E+03  1    1    7   14   0.6776049E+00   0.1066123E+00   0.3164697E+00
   14    12   0.140000000000000E+05          1     1   0.670389768084452E+04   0.815934364808436E+04   0.206064856162134E+03  1    3    5   17   0.7597442E+00   0.3983591E+00   0.3032428E+00
   14    12   0.140000000000000E+05          2     1   0.647164209037751E+04   0.830388808404216E+04   0.204986403070717E+03  1    3    5   17   0.1791052E+00   0.7597202E+00   0.2493202E+00
   14    12   0.140000000000000E+05          3     1   0.608211674237675E+04   0.834204963121514E+04   0.197911206567265E+03  1    4    5   16   0.2052919E+00   0.8551241E+00   0.9791121E+00
   14    12   0.140000000000000E+05          4     1   0.585739822935443E+04   0.821695196964033E+04   0.191669996079496E+03  1    4    5   15   0.6434956E+00   0.5423799E+00   0.9167000E+00
   14    12   0.140000000000000E+05          5     1   0.579508037869509E+04   0.802306412593231E+04   0.188180050191437E+03  1    4    5   15   0.4877009E+00   0.5766031E-01   0.8818005E+00
   14    12   0.140000000000000E+05          6     1   0.584974534728387E+04   0.791113354674485E+04   0.191604210717679E+03  1    4    6   15   0.6243634E+00   0.7778339E+00   0.9160421E+00
   14    12   0.140000000000000E+05          7     1   0.607515105383426E+04   0.792264137930239E+04   0.197395878009146E+03  1    4    6   16   0.1878776E+00   0.8066034E+00   0.9739588E+00
   14    12   0.140000000000000E+05          8     1   0.647164209037751E+04   0.801626564994526E+04   0.204986403070717E+03  1    3    5   17   0.1791052E+00   0.4066412E-01   0.2493202E+00
   14    12   0.140000000000000E+05          9     2   0.583502331623635E+04   0.737939237231941E+04   0.277965316350107E+03  1    1    7   15   0.5875583E+00   0.4484809E+00   0.1231230E+00
   14    12   0.140000000000000E+05         10     2   0.575503396070480E+04   0.752117629102284E+04   0.277919610046906E+03  1    1    7   15   0.3875849E+00   0.8029407E+00   0.1224165E+00
   14    12   0.140000000000000E+05         11     2   0.556391345191145E+04   0.757972117232405E+04   0.277840465426251E+03  1    1    7   14   0.9097836E+00   0.9493029E+00   0.1199351E+00