MODPATH_ENDPOINT_FILE 6 0                                                       
 2        500        500        500   0.410000000000000E+06
         0          0        500          0          0          0
         1
PG00            
END HEADER
          1     1  2   0.000000000000000E+00   0.665057736303194E+05  1    5   13   13 1          2   0.0000000E+00   0.5000000E-01   0.5000000E-01   0.480000000000000E+04   0.482000000000000E+04   0.500000000000000E+01  1    1   19    1 6          1   0.1647506E+00   0.9542943E+00   0.1000000E+01   0.659002480252292E+02   0.278171771439702E+04   0.339132598876953E+03 PG00
          2     1  2   0.000000000000000E+00   0.658188026002369E+05  1    5   13   13 1          2   0.0000000E+00   0.1500000E+00   0.5000000E-01   0.480000000000000E+04   0.486000000000000E+04   0.500000000000000E+01  1    1   17    1 6          1   0.1405804E+00   0.1009511E-01   0.1000000E+01   0.562321521859315E+02   0.320403804284587E+04   0.339124481201172E+03 PG00
          3     1  2   0.000000000000000E+00   0.647321704974013E+05  1    5   13   13 1          2   0.0000000E+00   0.2500000E+00   0.5000000E-01   0.480000000000000E+04   0.490000000000000E+04   0.500000000000000E+01  1    1   16    1 6          1   0.1281303E+00   0.2131259E+00   0.1000000E+01   0.512521140794713E+02   0.368525036562893E+04   0.339121093750000E+03 PG00
          4     1  2   0.000000000000000E+00   0.639428605020606E+05  1    5   13   13 1          2   0.0000000E+00   0.3500000E+00   0.5000000E-01   0.480000000000000E+04   0.494000000000000E+04   0.500000000000000E+01  1    1   15    1 6          1   0.1191106E+00   0.4852018E+00   0.1000000E+01   0.476442438699612E+02   0.419408073929246E+04   0.339118499755859E+03 PG00
          5     1  2   0.000000000000000E+00   0.637625740612068E+05  1    5   13   13 1          2   0.0000000E+00   0.4500000E+00   0.5000000E-01   0.480000000000000E+04   0.498000000000000E+04   0.500000000000000E+01  1    1   14    1 6          1   0.1122198E+00   0.8139282E+00   0.1000000E+01   0.448879008239526E+02   0.472557129532039E+04   0.339116851806641E+03 PG00
          6     1  2   0.000000000000000E+00   0.637626973083899E+05  1    5   13   13 1          2   0.0000000E+00   0.5500000E+00   0.5000000E-01   0.480000000000000E+04   0.502000000000000E+04   0.500000000000000E+01  1    1   12    1 6          1   0.1122251E+00   0.1870887E+00   0.1000000E+01   0.448900503547743E+02   0.527483547988663E+04   0.339116851806641E+03 PG00
          7     1  2   0.000000000000000E+00   0.639430276286299E+05  1    5   13   13 1          2   0.0000000E+00   0.6500000E+00   0.5000000E-01   0.480000000000000E+04   0.506000000000000E+04   0.500000000000000E+01  1    1   11    1 6          1   0.1191171E+00   0.5157418E+00   0.1000000E+01   0.476468535169793E+02   0.580629671434598E+04   0.339118499755859E+03 PG00
          8     1  2   0.000000000000000E+00   0.647324461043827E+05  1    5   13   13 1          2   0.0000000E+00   0.7500000E+00   0.5000000E-01   0.480000000000000E+04   0.510000000000000E+04   0.500000000000000E+01  1    1   10    1 6          1   0.1281375E+00   0.7877150E+00   0.1000000E+01   0.512549877300665E+02   0.631508601507832E+04   0.339121093750000E+03 PG00
          9     1  2   0.000000000000000E+00   0.658191578754004E+05  1    5   13   13 1          2   0.0000000E+00   0.8500000E+00   0.5000000E-01   0.480000000000000E+04   0.514000000000000E+04   0.500000000000000E+01  1    1    9    1 6          1   0.1405886E+00   0.9906225E+00   0.1000000E+01   0.562354494828363E+02   0.679624899795211E+04   0.339124481201172E+03 PG00
         10     1  2   0.000000000000000E+00   0.665061581637405E+05  1    5   13   13 1          2   0.0000000E+00   0.9500000E+00   0.5000000E-01   0.480000000000000E+04   0.518000000000000E+04   0.500000000000000E+01  1    1    7    1 6          1   0.1647663E+00   0.4628940E-01   0.1000000E+01   0.659065373488872E+02   0.721851576166726E+04   0.339132629394531E+03 PG00
         11     1  2   0.000000000000000E+00   0.485418490224979E+05  1    5   13   13 1          2   0.0000000E+00   0.5000000E-01   0.1500000E+00   0.480000000000000E+04   0.482000000000000E+04   0.150000000000000E+02  1    1   18    1 6          1   0.5199272E+00   0.8714987E+00   0.1000000E+01   0.207970889452456E+03   0.314859948888569E+04   0.339128387451172E+03 PG00
         12     1  2   0.000000000000000E+00   0.478809719241445E+05  1    5   13   13 1          2   0.0000000E+00   0.1500000E+00   0.1500000E+00   0.480000000000000E+04   0.486000000000000E+04   0.150000000000000E+02  1    1   17    1 6          1   0.4727165E+00   0.8457519E+00   0.1000000E+01   0.189086606273798E+03   0.353830074508641E+04   0.339124481201172E+03 PG00
         13     1  2   0.000000000000000E+00   0.468111846336492E+05  1    5   13   13 1          2   0.0000000E+00   0.2500000E+00   0.1500000E+00   0.480000000000000E+04   0.490000000000000E+04   0.150000000000000E+02  1    1   16    1 6          1   0.4562238E+00   0.8873931E+00   0.1000000E+01   0.182489503949559E+03   0.395495723906218E+04   0.339121093750000E+03 PG00
         14     1  2   0.000000000000000E+00   0.460349868421265E+05  1    5   13   13 1          2   0.0000000E+00   0.3500000E+00   0.1500000E+00   0.480000000000000E+04   0.494000000000000E+04   0.150000000000000E+02  1    1   15    1 6          1   0.4444813E+00   0.9273572E+00   0.1000000E+01   0.177792517116527E+03   0.437094287653256E+04   0.339118499755859E+03 PG00
         15     1  2   0.000000000000000E+00   0.458630195163135E+05  1    5   13   13 1          2   0.0000000E+00   0.4500000E+00   0.1500000E+00   0.480000000000000E+04   0.498000000000000E+04   0.150000000000000E+02  1    1   14    1 6          1   0.4319376E+00   0.9701118E+00   0.1000000E+01   0.172775036291689E+03   0.478804471843259E+04   0.339116851806641E+03 PG00
         16     1  2   0.000000000000000E+00   0.458630264626871E+05  1    5   13   13 1          2   0.0000000E+00   0.5500000E+00   0.1500000E+00   0.480000000000000E+04   0.502000000000000E+04   0.150000000000000E+02  1    1   12    1 6          1   0.4319577E+00   0.3047417E-01   0.1000000E+01   0.172783080540358E+03   0.521218966975594E+04   0.339116851806641E+03 PG00
         17     1  2   0.000000000000000E+00   0.460349056749673E+05  1    5   13   13 1          2   0.0000000E+00   0.6500000E+00   0.1500000E+00   0.480000000000000E+04   0.506000000000000E+04   0.150000000000000E+02  1    1   11    1 6          1   0.4445055E+00   0.7320172E-01   0.1000000E+01   0.177802186553182E+03   0.562928068619831E+04   0.339118499755859E+03 PG00
         18     1  2   0.000000000000000E+00   0.468110861091271E+05  1    5   13   13 1          2   0.0000000E+00   0.7500000E+00   0.1500000E+00   0.480000000000000E+04   0.510000000000000E+04   0.150000000000000E+02  1    1   10    1 6          1   0.4562499E+00   0.1131282E+00   0.1000000E+01   0.182499967946630E+03   0.604525129230802E+04   0.339121093750000E+03 PG00
         19     1  2   0.000000000000000E+00   0.478808343459116E+05  1    5   13   13 1          2   0.0000000E+00   0.8500000E+00   0.1500000E+00   0.480000000000000E+04   0.514000000000000E+04   0.150000000000000E+02  1    1    9    1 6          1   0.4727458E+00   0.1547169E+00   0.1000000E+01   0.189098332827324E+03   0.646188676970193E+04   0.339124481201172E+03 PG00
         20     1  2   0.000000000000000E+00   0.485416149855533E+05  1    5   13   13 1          2   0.0000000E+00   0.9500000E+00   0.1500000E+00   0.480000000000000E+04   0.518000000000000E+04   0.150000000000000E+02  1    1    8    1 6          1   0.5199605E+00   0.1289012E+00   0.1000000E+01   0.207984196823508E+03   0.685156049267531E+04   0.339128417968750E+03 PG00
         21     1  2   0.000000000000000E+00   0.401966437193732E+05  1    5   13   13 1          2   0.0000000E+00   0.5000000E-01   0.2500000E+00   0.480000000000000E+04   0.482000000000000E+04   0.250000000000000E+02  1    1   17    1 6          1   0.9068181E+00   0.2891748E+00   0.1000000E+01   0.362727230323198E+03   0.331566991647218E+04   0.339124481201172E+03 PG00
         22     1  2   0.000000000000000E+00   0.395457796115276E+05  1    5   13   13 1          2   0.0000000E+00   0.1500000E+00   0.2500000E+00   0.480000000000000E+04   0.486000000000000E+04   0.250000000000000E+02  1    1   16    1 6          1   0.8446039E+00   0.2073168E+00   0.1000000E+01   0.337841564626410E+03   0.368292672824675E+04   0.339121093750000E+03 PG00
         23     1  2   0.000000000000000E+00   0.384840791015688E+05  1    5   13   13 1          2   0.0000000E+00   0.2500000E+00   0.2500000E+00   0.480000000000000E+04   0.490000000000000E+04   0.250000000000000E+02  1    1   15    1 6          1   0.8351723E+00   0.1668165E+00   0.1000000E+01   0.334068934429169E+03   0.406672660523051E+04   0.339118499755859E+03 PG00
         24     1  2   0.000000000000000E+00   0.377139485342923E+05  1    5   13   13 1          2   0.0000000E+00   0.3500000E+00   0.2500000E+00   0.480000000000000E+04   0.494000000000000E+04   0.250000000000000E+02  1    1   14    1 6          1   0.8276167E+00   0.1044039E+00   0.1000000E+01   0.331046668546858E+03   0.444176156340862E+04   0.339116851806641E+03 PG00
         25     1  2   0.000000000000000E+00   0.375457005663070E+05  1    5   13   13 1          2   0.0000000E+00   0.4500000E+00   0.2500000E+00   0.480000000000000E+04   0.498000000000000E+04   0.250000000000000E+02  1    1   13    1 6          1   0.8107252E+00   0.3120848E-01   0.1000000E+01   0.324290086260673E+03   0.481248339173947E+04   0.339116302490234E+03 PG00
         26     1  2   0.000000000000000E+00   0.375457005663070E+05  1    5   13   13 1          2   0.0000000E+00   0.5500000E+00   0.2500000E+00   0.480000000000000E+04   0.502000000000000E+04   0.250000000000000E+02  1    1   13    1 6          1   0.8107252E+00   0.9692100E+00   0.1000000E+01   0.324290086260673E+03   0.518768400287229E+04   0.339116302490234E+03 PG00
         27     1  2   0.000000000000000E+00   0.377138037035212E+05  1    5   13   13 1          2   0.0000000E+00   0.6500000E+00   0.2500000E+00   0.480000000000000E+04   0.506000000000000E+04   0.250000000000000E+02  1    1   12    1 6          1   0.8276258E+00   0.8959979E+00   0.1000000E+01   0.331050326118832E+03   0.555839915305260E+04   0.339116851806641E+03 PG00
         28     1  2   0.000000000000000E+00   0.384838634873841E+05  1    5   13   13 1          2   0.0000000E+00   0.7500000E+00   0.2500000E+00   0.480000000000000E+04   0.510000000000000E+04   0.250000000000000E+02  1    1   11    1 6          1   0.8351888E+00   0.8335652E+00   0.1000000E+01   0.334075532624943E+03   0.593342608386124E+04   0.339118499755859E+03 PG00
         29     1  2   0.000000000000000E+00   0.395454768768830E+05  1    5   13   13 1          2   0.0000000E+00   0.8500000E+00   0.2500000E+00   0.480000000000000E+04   0.514000000000000E+04   0.250000000000000E+02  1    1   10    1 6          1   0.8446303E+00   0.7930347E+00   0.1000000E+01   0.337852102272864E+03   0.631721389999105E+04   0.339121093750000E+03 PG00
         30     1  2   0.000000000000000E+00   0.401962074139833E+05  1    5   13   13 1          2   0.0000000E+00   0.9500000E+00   0.2500000E+00   0.480000000000000E+04   0.518000000000000E+04   0.250000000000000E+02  1    1    9    1 6          1   0.9068542E+00   0.7111299E+00   0.1000000E+01   0.362741697831184E+03   0.668445194824972E+04   0.339124481201172E+03 PG00
         31     1  2   0.000000000000000E+00   0.346868476204599E+05  1    5   13   13 1          2   0.0000000E+00   0.5000000E-01   0.3500000E+00   0.480000000000000E+04   0.482000000000000E+04   0.350000000000000E+02  1    1   17    2 6          1   0.3153543E+00   0.5646945E+00   0.1000000E+01   0.526141720565233E+03   0.342587780987661E+04   0.339088317871094E+03 PG00
         32     1  2   0.000000000000000E+00   0.340424416180790E+05  1    5   13   13 1          2   0.0000000E+00   0.1500000E+00   0.3500000E+00   0.480000000000000E+04   0.486000000000000E+04   0.350000000000000E+02  1    1   16    2 6          1   0.2473192E+00   0.4431503E+00   0.1000000E+01   0.498927662003354E+03   0.377726013387421E+04   0.339084808349609E+03 PG00
         33     1  2   0.000000000000000E+00   0.329854133951069E+05  1    5   13   13 1          2   0.0000000E+00   0.2500000E+00   0.3500000E+00   0.480000000000000E+04   0.490000000000000E+04   0.350000000000000E+02  1    1   15    2 6          1   0.2518443E+00   0.3462881E+00   0.1000000E+01   0.500737718808893E+03   0.413851524037413E+04   0.339082092285156E+03 PG00
         34     1  2   0.000000000000000E+00   0.322183369273426E+05  1    5   13   13 1          2   0.0000000E+00   0.3500000E+00   0.3500000E+00   0.480000000000000E+04   0.494000000000000E+04   0.350000000000000E+02  1    1   14    2 6          1   0.2527703E+00   0.2170127E+00   0.1000000E+01   0.501108132356899E+03   0.448680509921409E+04   0.339080383300781E+03 PG00
         35     1  2   0.000000000000000E+00   0.320518004495054E+05  1    5   13   13 1          2   0.0000000E+00   0.4500000E+00   0.3500000E+00   0.480000000000000E+04   0.498000000000000E+04   0.350000000000000E+02  1    1   13    2 6          1   0.2313273E+00   0.7002007E-01   0.1000000E+01   0.492530920256184E+03   0.482800802913322E+04   0.339079803466797E+03 PG00
         36     1  2   0.000000000000000E+00   0.320518004495054E+05  1    5   13   13 1          2   0.0000000E+00   0.5500000E+00   0.3500000E+00   0.480000000000000E+04   0.502000000000000E+04   0.350000000000000E+02  1    1   13    2 6          1   0.2313273E+00   0.9302968E+00   0.1000000E+01   0.492530920256184E+03   0.517211870455011E+04   0.339079803466797E+03 PG00
         37     1  2   0.000000000000000E+00   0.322181754196194E+05  1    5   13   13 1          2   0.0000000E+00   0.6500000E+00   0.3500000E+00   0.480000000000000E+04   0.506000000000000E+04   0.350000000000000E+02  1    1   12    2 6          1   0.2527849E+00   0.7832924E+00   0.1000000E+01   0.501113965064017E+03   0.551331694891851E+04   0.339080383300781E+03 PG00
         38     1  2   0.000000000000000E+00   0.329851638115420E+05  1    5   13   13 1          2   0.0000000E+00   0.7500000E+00   0.3500000E+00   0.480000000000000E+04   0.510000000000000E+04   0.350000000000000E+02  1    1   11    2 6          1   0.2518704E+00   0.6540060E+00   0.1000000E+01   0.500748151691273E+03   0.586160238372412E+04   0.339082092285156E+03 PG00
         39     1  2   0.000000000000000E+00   0.340420872190713E+05  1    5   13   13 1          2   0.0000000E+00   0.8500000E+00   0.3500000E+00   0.480000000000000E+04   0.514000000000000E+04   0.350000000000000E+02  1    1   10    2 6          1   0.2473600E+00   0.5571260E+00   0.1000000E+01   0.498943990532508E+03   0.622285039611426E+04   0.339084808349609E+03 PG00
         40     1  2   0.000000000000000E+00   0.346863611116561E+05  1    5   13   13 1          2   0.0000000E+00   0.9500000E+00   0.3500000E+00   0.480000000000000E+04   0.518000000000000E+04   0.350000000000000E+02  1    1    9    2 6          1   0.3154084E+00   0.4355495E+00   0.1000000E+01   0.526163363332388E+03   0.657421978285731E+04   0.339088348388672E+03 PG00
         41     1  2   0.000000000000000E+00   0.305823755974404E+05  1    5   13   13 1          2   0.0000000E+00   0.5000000E-01   0.4500000E+00   0.480000000000000E+04   0.482000000000000E+04   0.450000000000000E+02  1    1   17    2 6          1   0.7370978E+00   0.7815871E+00   0.1000000E+01   0.694839111817832E+03   0.351263485974589E+04   0.339088317871094E+03 PG00
         42     1  2   0.000000000000000E+00   0.299438193256304E+05  1    5   13   13 1          2   0.0000000E+00   0.1500000E+00   0.4500000E+00   0.480000000000000E+04   0.486000000000000E+04   0.450000000000000E+02  1    1   16    2 6          1   0.6701271E+00   0.6225874E+00   0.1000000E+01   0.668050844629880E+03   0.384903496856442E+04   0.339084808349609E+03 PG00
         43     1  2   0.000000000000000E+00   0.288897772239270E+05  1    5   13   13 1          2   0.0000000E+00   0.2500000E+00   0.4500000E+00   0.480000000000000E+04   0.490000000000000E+04   0.450000000000000E+02  1    1   15    2 6          1   0.6956532E+00   0.4819202E+00   0.1000000E+01   0.678261294152606E+03   0.419276809040450E+04   0.339082092285156E+03 PG00
         44     1  2   0.000000000000000E+00   0.281245362096216E+05  1    5   13   13 1          2   0.0000000E+00   0.3500000E+00   0.4500000E+00   0.480000000000000E+04   0.494000000000000E+04   0.450000000000000E+02  1    1   14    2 6          1   0.7100219E+00   0.3016675E+00   0.1000000E+01   0.684008778329579E+03   0.452066698353624E+04   0.339080383300781E+03 PG00
         45     1  2   0.000000000000000E+00   0.279593062271393E+05  1    5   13   13 1          2   0.0000000E+00   0.4500000E+00   0.4500000E+00   0.480000000000000E+04   0.498000000000000E+04   0.450000000000000E+02  1    1   13    2 6          1   0.6850937E+00   0.9894516E-01   0.1000000E+01   0.674037494420698E+03   0.483957806529669E+04   0.339079803466797E+03 PG00
         46     1  2   0.000000000000000E+00   0.279593062271393E+05  1    5   13   13 1          2   0.0000000E+00   0.5500000E+00   0.4500000E+00   0.480000000000000E+04   0.502000000000000E+04   0.450000000000000E+02  1    1   13    2 6          1   0.6850937E+00   0.9013037E+00   0.1000000E+01   0.674037494420698E+03   0.516052146611109E+04   0.339079803466797E+03 PG00
         47     1  2   0.000000000000000E+00   0.281243934815069E+05  1    5   13   13 1          2   0.0000000E+00   0.6500000E+00   0.4500000E+00   0.480000000000000E+04   0.506000000000000E+04   0.450000000000000E+02  1    1   12    2 6          1   0.7100401E+00   0.6985727E+00   0.1000000E+01   0.684016028590939E+03   0.547942909855779E+04   0.339080383300781E+03 PG00
         48     1  2   0.000000000000000E+00   0.288895572202432E+05  1    5   13   13 1          2   0.0000000E+00   0.7500000E+00   0.4500000E+00   0.480000000000000E+04   0.510000000000000E+04   0.450000000000000E+02  1    1   11    2 6          1   0.6956857E+00   0.5183141E+00   0.1000000E+01   0.678274296722696E+03   0.580732562626500E+04   0.339082092285156E+03 PG00
         49     1  2   0.000000000000000E+00   0.299434900068450E+05  1    5   13   13 1          2   0.0000000E+00   0.8500000E+00   0.4500000E+00   0.480000000000000E+04   0.514000000000000E+04   0.450000000000000E+02  1    1   10    2 6          1   0.6701795E+00   0.3776356E+00   0.1000000E+01   0.668071788986990E+03   0.615105422654257E+04   0.339084808349609E+03 PG00
         50     1  2   0.000000000000000E+00   0.305819274731150E+05  1    5   13   13 1          2   0.0000000E+00   0.9500000E+00   0.4500000E+00   0.480000000000000E+04   0.518000000000000E+04   0.450000000000000E+02  1    1    9    2 6          1   0.7371650E+00   0.2186126E+00   0.1000000E+01   0.694865981986145E+03   0.648744505343842E+04   0.339088348388672E+03 PG00
         51     1  2   0.000000000000000E+00   0.272778885083117E+05  1    5   13   13 1          2   0.0000000E+00   0.5000000E-01   0.5500000E+00   0.480000000000000E+04   0.482000000000000E+04   0.550000000000000E+02  1    1   17    3 6          1   0.1698552E+00   0.9597531E+00   0.1000000E+01   0.867942079324641E+03   0.358390125261010E+04   0.339015716552734E+03 PG00
         52     1  2   0.000000000000000E+00   0.266450393167936E+05  1    5   13   13 1          2   0.0000000E+00   0.1500000E+00   0.5500000E+00   0.480000000000000E+04   0.486000000000000E+04   0.550000000000000E+02  1    1   16    3 6          1   0.1105330E+00   0.7711584E+00   0.1000000E+01   0.844213209727469E+03   0.390846335901264E+04   0.339011932373047E+03 PG00
         53     1  2   0.000000000000000E+00   0.255939128510297E+05  1    5   13   13 1          2   0.0000000E+00   0.2500000E+00   0.5500000E+00   0.480000000000000E+04   0.490000000000000E+04   0.550000000000000E+02  1    1   15    3 6          1   0.1640691E+00   0.5928399E+00   0.1000000E+01   0.865627622921500E+03   0.423713596941356E+04   0.339008972167969E+03 PG00
         54     1  2   0.000000000000000E+00   0.248443569381528E+05  1    5   13   13 1          2   0.0000000E+00   0.3500000E+00   0.5500000E+00   0.480000000000000E+04   0.494000000000000E+04   0.550000000000000E+02  1    1   14    3 6          1   0.1969911E+00   0.3708921E+00   0.1000000E+01   0.878796430586473E+03   0.454835682792625E+04   0.339007110595703E+03 PG00
         55     1  2   0.000000000000000E+00   0.246679363379123E+05  1    5   13   13 1          2   0.0000000E+00   0.4500000E+00   0.5500000E+00   0.480000000000000E+04   0.498000000000000E+04   0.550000000000000E+02  1    1   13    3 6          1   0.1698160E+00   0.1226149E+00   0.1000000E+01   0.867926404827239E+03   0.484904595494608E+04   0.339006500244141E+03 PG00
         56     1  2   0.000000000000000E+00   0.246679363379123E+05  1    5   13   13 1          2   0.0000000E+00   0.5500000E+00   0.5500000E+00   0.480000000000000E+04   0.502000000000000E+04   0.550000000000000E+02  1    1   13    3 6          1   0.1698160E+00   0.8775840E+00   0.1000000E+01   0.867926404827239E+03   0.515103359981172E+04   0.339006500244141E+03 PG00
         57     1  2   0.000000000000000E+00   0.248442501813156E+05  1    5   13   13 1          2   0.0000000E+00   0.6500000E+00   0.5500000E+00   0.480000000000000E+04   0.506000000000000E+04   0.550000000000000E+02  1    1   12    3 6          1   0.1970087E+00   0.6293002E+00   0.1000000E+01   0.878803460242178E+03   0.545172008201130E+04   0.339007110595703E+03 PG00
         58     1  2   0.000000000000000E+00   0.255937474369989E+05  1    5   13   13 1          2   0.0000000E+00   0.7500000E+00   0.5500000E+00   0.480000000000000E+04   0.510000000000000E+04   0.550000000000000E+02  1    1   11    3 6          1   0.1641021E+00   0.4073510E+00   0.1000000E+01   0.865640846772488E+03   0.576294039833714E+04   0.339009002685547E+03 PG00
         59     1  2   0.000000000000000E+00   0.266447702541995E+05  1    5   13   13 1          2   0.0000000E+00   0.8500000E+00   0.5500000E+00   0.480000000000000E+04   0.514000000000000E+04   0.550000000000000E+02  1    1   10    3 6          1   0.1105901E+00   0.2290268E+00   0.1000000E+01   0.844236025112062E+03   0.609161073955824E+04   0.339011932373047E+03 PG00
         60     1  2   0.000000000000000E+00   0.272775186876196E+05  1    5   13   13 1          2   0.0000000E+00   0.9500000E+00   0.5500000E+00   0.480000000000000E+04   0.518000000000000E+04   0.550000000000000E+02  1    1    9    3 6          1   0.1699263E+00   0.4041652E-01   0.1000000E+01   0.867970501524115E+03   0.641616660955937E+04   0.339015747070312E+03 PG00
         61     1  2   0.000000000000000E+00   0.245424817583999E+05  1    5   13   13 1          2   0.0000000E+00   0.5000000E-01   0.6500000E+00   0.480000000000000E+04   0.482000000000000E+04   0.650000000000000E+02  1    1   16    3 6          1   0.6354544E+00   0.1342881E+00   0.1000000E+01   0.105418176981415E+04   0.365371523060501E+04   0.339011932373047E+03 PG00
         62     1  2   0.000000000000000E+00   0.239202716533832E+05  1    5   13   13 1          2   0.0000000E+00   0.1500000E+00   0.6500000E+00   0.480000000000000E+04   0.486000000000000E+04   0.650000000000000E+02  1    1   16    3 6          1   0.5667767E+00   0.9143225E+00   0.1000000E+01   0.102671069276999E+04   0.396572898785328E+04   0.339011932373047E+03 PG00
         63     1  2   0.000000000000000E+00   0.228876145908953E+05  1    5   13   13 1          2   0.0000000E+00   0.2500000E+00   0.6500000E+00   0.480000000000000E+04   0.490000000000000E+04   0.650000000000000E+02  1    1   15    3 6          1   0.6547335E+00   0.7064679E+00   0.1000000E+01   0.106189339013970E+04   0.428258715821586E+04   0.339008972167969E+03 PG00
         64     1  2   0.000000000000000E+00   0.221306974606820E+05  1    5   13   13 1          2   0.0000000E+00   0.3500000E+00   0.6500000E+00   0.480000000000000E+04   0.494000000000000E+04   0.650000000000000E+02  1    1   14    3 6          1   0.7164955E+00   0.4477377E+00   0.1000000E+01   0.108659821794611E+04   0.457909508791121E+04   0.339007110595703E+03 PG00
         65     1  2   0.000000000000000E+00   0.219882914844461E+05  1    5   13   13 1          2   0.0000000E+00   0.4500000E+00   0.6500000E+00   0.480000000000000E+04   0.498000000000000E+04   0.650000000000000E+02  1    1   13    3 6          1   0.6867914E+00   0.1481484E+00   0.1000000E+01   0.107471654364538E+04   0.485925937939887E+04   0.339006500244141E+03 PG00
         66     1  2   0.000000000000000E+00   0.219882914844461E+05  1    5   13   13 1          2   0.0000000E+00   0.5500000E+00   0.6500000E+00   0.480000000000000E+04   0.502000000000000E+04   0.650000000000000E+02  1    1   13    3 6          1   0.6867914E+00   0.8520126E+00   0.1000000E+01   0.107471654364538E+04   0.514080504915090E+04   0.339006500244141E+03 PG00
         67     1  2   0.000000000000000E+00   0.221306338224137E+05  1    5   13   13 1          2   0.0000000E+00   0.6500000E+00   0.6500000E+00   0.480000000000000E+04   0.506000000000000E+04   0.650000000000000E+02  1    1   12    3 6          1   0.7165085E+00   0.5524184E+00   0.1000000E+01   0.108660341402866E+04   0.542096735397515E+04   0.339007110595703E+03 PG00
         68     1  2   0.000000000000000E+00   0.228875081545232E+05  1    5   13   13 1          2   0.0000000E+00   0.7500000E+00   0.6500000E+00   0.480000000000000E+04   0.510000000000000E+04   0.650000000000000E+02  1    1   11    3 6          1   0.6547637E+00   0.2936889E+00   0.1000000E+01   0.106190547612604E+04   0.571747557308606E+04   0.339009002685547E+03 PG00
         69     1  2   0.000000000000000E+00   0.239200792809283E+05  1    5   13   13 1          2   0.0000000E+00   0.8500000E+00   0.6500000E+00   0.480000000000000E+04   0.514000000000000E+04   0.650000000000000E+02  1    1   10    3 6          1   0.5668329E+00   0.8583093E-01   0.1000000E+01   0.102673317458915E+04   0.603433237057849E+04   0.339011932373047E+03 PG00
         70     1  2   0.000000000000000E+00   0.245422148367889E+05  1    5   13   13 1          2   0.0000000E+00   0.9500000E+00   0.6500000E+00   0.480000000000000E+04   0.518000000000000E+04   0.650000000000000E+02  1    1   10    3 6          1   0.6355011E+00   0.8658526E+00   0.1000000E+01   0.105420042250849E+04   0.634634102039312E+04   0.339011932373047E+03 PG00
         71     1  2   0.000000000000000E+00   0.222243240449977E+05  1    5   13   13 1          2   0.0000000E+00   0.5000000E-01   0.7500000E+00   0.480000000000000E+04   0.482000000000000E+04   0.750000000000000E+02  1    1   16    4 6          1   0.1208808E+00   0.3089399E+00   0.1000000E+01   0.124835233071888E+04   0.372357595798598E+04   0.338901794433594E+03 PG00
         72     1  2   0.000000000000000E+00   0.216370969255465E+05  1    5   13   13 1          2   0.0000000E+00   0.1500000E+00   0.7500000E+00   0.480000000000000E+04   0.486000000000000E+04   0.750000000000000E+02  1    1   15    4 6          1   0.4384281E-01   0.6926445E-01   0.1000000E+01   0.121753712523964E+04   0.402770578099009E+04   0.338898498535156E+03 PG00
         73     1  2   0.000000000000000E+00   0.205911674976740E+05  1    5   13   13 1          2   0.0000000E+00   0.2500000E+00   0.7500000E+00   0.480000000000000E+04   0.490000000000000E+04   0.750000000000000E+02  1    1   15    4 6          1   0.1689494E+00   0.8667729E+00   0.1000000E+01   0.126757975939227E+04   0.434670916824609E+04   0.338898498535156E+03 PG00
         74     1  2   0.000000000000000E+00   0.198397806441997E+05  1    5   13   13 1          2   0.0000000E+00   0.3500000E+00   0.7500000E+00   0.480000000000000E+04   0.494000000000000E+04   0.750000000000000E+02  1    1   14    4 6          1   0.2810189E+00   0.5177923E+00   0.1000000E+01   0.131240754962401E+04   0.460711692945029E+04   0.338896423339844E+03 PG00
         75     1  2   0.000000000000000E+00   0.197350811569229E+05  1    5   13   13 1          2   0.0000000E+00   0.4500000E+00   0.7500000E+00   0.480000000000000E+04   0.498000000000000E+04   0.750000000000000E+02  1    1   13    4 6          1   0.2423976E+00   0.1716304E+00   0.1000000E+01   0.129695905305979E+04   0.486865216810119E+04   0.338895690917969E+03 PG00
         76     1  2   0.000000000000000E+00   0.197350811569229E+05  1    5   13   13 1          2   0.0000000E+00   0.5500000E+00   0.7500000E+00   0.480000000000000E+04   0.502000000000000E+04   0.750000000000000E+02  1    1   13    4 6          1   0.2423976E+00   0.8284992E+00   0.1000000E+01   0.129695905305979E+04   0.513139968159426E+04   0.338895690917969E+03 PG00
         77     1  2   0.000000000000000E+00   0.198397487097545E+05  1    5   13   13 1          2   0.0000000E+00   0.6500000E+00   0.7500000E+00   0.480000000000000E+04   0.506000000000000E+04   0.750000000000000E+02  1    1   12    4 6          1   0.2810266E+00   0.4823330E+00   0.1000000E+01   0.131241065858116E+04   0.539293321635519E+04   0.338896423339844E+03 PG00
         78     1  2   0.000000000000000E+00   0.205911126622989E+05  1    5   13   13 1          2   0.0000000E+00   0.7500000E+00   0.7500000E+00   0.480000000000000E+04   0.510000000000000E+04   0.750000000000000E+02  1    1   11    4 6          1   0.1689751E+00   0.1333558E+00   0.1000000E+01   0.126759005401006E+04   0.565334230913020E+04   0.338898498535156E+03 PG00