MODPATH_TIMESERIES_FILE 6 0                                                     
 1   0.209999984375000E+06
END HEADER
    0    11   0.000000000000000E+00          1     1   0.199960000000000E+04   0.820000000000000E+04   0.338780761718750E+03  1    1    5    5   0.9990000E+00   0.5000000E+00   0.1000000E+01
    0    11   0.000000000000000E+00          2     1   0.194120000000000E+04   0.834120000000000E+04   0.338780761718750E+03  1    1    5    5   0.8530000E+00   0.8530000E+00   0.1000000E+01
    0    11   0.000000000000000E+00          3     1   0.180000000000000E+04   0.839960000000000E+04   0.338780761718750E+03  1    1    5    5   0.5000000E+00   0.9990000E+00   0.1000000E+01
    0    11   0.000000000000000E+00          4     1   0.165880000000000E+04   0.834120000000000E+04   0.338780761718750E+03  1    1    5    5   0.1470000E+00   0.8530000E+00   0.1000000E+01
    0    11   0.000000000000000E+00          5     1   0.160040000000000E+04   0.820000000000000E+04   0.338780761718750E+03  1    1    5    5   0.1000000E-02   0.5000000E+00   0.1000000E+01
    0    11   0.000000000000000E+00          6     1   0.165880000000000E+04   0.805880000000000E+04   0.338780761718750E+03  1    1    5    5   0.1470000E+00   0.1470000E+00   0.1000000E+01
    0    11   0.000000000000000E+00          7     1   0.180000000000000E+04   0.800040000000000E+04   0.338780761718750E+03  1    1    5    5   0.5000000E+00   0.1000000E-02   0.1000000E+01
    0    11   0.000000000000000E+00          8     1   0.194120000000000E+04   0.805880000000000E+04   0.338780761718750E+03  1    1    5    5   0.8530000E+00   0.1470000E+00   0.1000000E+01
    0    11   0.000000000000000E+00          9     2   0.319960000000000E+04   0.700000000000000E+04   0.338080505371094E+03  1    1    8    8   0.9990000E+00   0.5000000E+00   0.1000000E+01
    0    11   0.000000000000000E+00         10     2   0.314120000000000E+04   0.714120000000000E+04   0.338080505371094E+03  1    1    8    8   0.8530000E+00   0.8530000E+00   0.1000000E+01
    0    11   0.000000000000000E+00         11     2   0.300000000000000E+04   0.719960000000000E+04   0.338080505371094E+03  1    1    8    8   0.5000000E+00   0.9990000E+00   0.1000000E+01
    0    11   0.000000000000000E+00         12     2   0.285880000000000E+04   0.714120000000000E+04   0.338080505371094E+03  1    1    8    8   0.1470000E+00   0.8530000E+00   0.1000000E+01
    0    11   0.000000000000000E+00         13     2   0.280040000000000E+04   0.700000000000000E+04   0.338080505371094E+03  1    1    8    8   0.1000000E-02   0.5000000E+00   0.1000000E+01
    0    11   0.000000000000000E+00         14     2   0.285880000000000E+04   0.685880000000000E+04   0.338080505371094E+03  1    1    8    8   0.1470000E+00   0.1470000E+00   0.1000000E+01
    0    11   0.000000000000000E+00         15     2   0.300000000000000E+04   0.680040000000000E+04   0.338080505371094E+03  1    1    8    8   0.5000000E+00   0.1000000E-02   0.1000000E+01
    0    11   0.000000000000000E+00         16     2   0.314120000000000E+04   0.685880000000000E+04   0.338080505371094E+03  1    1    8    8   0.8530000E+00   0.1470000E+00   0.1000000E+01
    0    12   0.000000000000000E+00          1     1   0.199960000000000E+04   0.820000000000000E+04   0.338757263183594E+03  1    1    5    5   0.9990000E+00   0.5000000E+00   0.1000000E+01
    0    12   0.000000000000000E+00          2     1   0.194120000000000E+04   0.834120000000000E+04   0.338757263183594E+03  1    1    5    5   0.8530000E+00   0.8530000E+00   0.1000000E+01
    0    12   0.000000000000000E+00          3     1   0.180000000000000E+04   0.839960000000000E+04   0.338757263183594E+03  1    1    5    5   0.5000000E+00   0.9990000E+00   0.1000000E+01
    0    12   0.000000000000000E+00          4     1   0.165880000000000E+04   0.834120000000000E+04   0.338757263183594E+03  1    1    5    5   0.1470000E+00   0.8530000E+00   0.1000000E+01
    0    12   0.000000000000000E+00          5     1   0.160040000000000E+04   0.820000000000000E+04   0.338757263183594E+03  1    1    5    5   0.1000000E-02   0.5000000E+00   0.1000000E+01
    0    12   0.000000000000000E+00          6     1   0.165880000000000E+04   0.805880000000000E+04   0.338757263183594E+03  1    1    5    5   0.1470000E+00   0.1470000E+00   0.1000000E+01
    0    12   0.000000000000000E+00          7     1   0.180000000000000E+04   0.800040000000000E+04   0.338757263183594E+03  1    1    5    5   0.5000000E+00   0.1000000E-02   0.1000000E+01
    0    12   0.000000000000000E+00          8     1   0.194120000000000E+04   0.805880000000000E+04   0.338757263183594E+03  1    1    5    5   0.8530000E+00   0.1470000E+00   0.1000000E+01
    0    12   0.000000000000000E+00          9     2   0.319960000000000E+04   0.700000000000000E+04   0.338058044433594E+03  1    1    8    8   0.9990000E+00   0.5000000E+00   0.1000000E+01
    0    12   0.000000000000000E+00         10     2   0.314120000000000E+04   0.714120000000000E+04   0.338058044433594E+03  1    1    8    8   0.8530000E+00   0.8530000E+00   0.1000000E+01
    0    12   0.000000000000000E+00         11     2   0.300000000000000E+04   0.719960000000000E+04   0.338058044433594E+03  1    1    8    8   0.5000000E+00   0.9990000E+00   0.1000000E+01
    0    12   0.000000000000000E+00         12     2   0.285880000000000E+04   0.714120000000000E+04   0.338058044433594E+03  1    1    8    8   0.1470000E+00   0.8530000E+00   0.1000000E+01
    0    12   0.000000000000000E+00         13     2   0.280040000000000E+04   0.700000000000000E+04   0.338058044433594E+03  1    1    8    8   0.1000000E-02   0.5000000E+00   0.1000000E+01
    0    12   0.000000000000000E+00         14     2   0.285880000000000E+04   0.685880000000000E+04   0.338058044433594E+03  1    1    8    8   0.1470000E+00   0.1470000E+00   0.1000000E+01
    0    12   0.000000000000000E+00         15     2   0.300000000000000E+04   0.680040000000000E+04   0.338058044433594E+03  1    1    8    8   0.5000000E+00   0.1000000E-02   0.1000000E+01
    0    12   0.000000000000000E+00         16     2   0.314120000000000E+04   0.685880000000000E+04   0.338058044433594E+03  1    1    8    8   0.8530000E+00   0.1470000E+00   0.1000000E+01
    1    12   0.100000000000000E+04          1     1   0.207785813564775E+04   0.819767511070155E+04   0.322254616829745E+03  1    1    5    6   0.1946453E+00   0.4941878E+00   0.7620233E+00
    1    12   0.100000000000000E+04          2     1   0.201686152741613E+04   0.833917649248767E+04   0.322280076794841E+03  1    1    5    6   0.4215382E-01   0.8479412E+00   0.7623946E+00
    1    12   0.100000000000000E+04          3     1   0.186986829879370E+04   0.839767037396311E+04   0.322424583592213E+03  1    1    5    5   0.6746707E+00   0.9941759E+00   0.7624588E+00
    1    12   0.100000000000000E+04          4     1   0.172292298648655E+04   0.833922728685187E+04   0.322424583592213E+03  1    1    5    5   0.3073075E+00   0.8480682E+00   0.7624588E+00
    1    12   0.100000000000000E+04          5     1   0.166214673833685E+04   0.819792311048018E+04   0.322424583592213E+03  1    1    5    5   0.1553668E+00   0.4948078E+00   0.7624588E+00
    1    12   0.100000000000000E+04          6     1   0.172292298648655E+04   0.805661893410848E+04   0.322424583592213E+03  1    1    5    5   0.3073075E+00   0.1415473E+00   0.7624588E+00
    1    12   0.100000000000000E+04          7     1   0.187007978718461E+04   0.799817593321130E+04   0.322418017832576E+03  1    1    6    5   0.6751995E+00   0.9954398E+00   0.7624226E+00
    1    12   0.100000000000000E+04          8     1   0.201686152741613E+04   0.805656055661984E+04   0.322280076794841E+03  1    1    5    6   0.4215382E-01   0.1414014E+00   0.7623946E+00
    1    12   0.100000000000000E+04          9     2   0.333432195885058E+04   0.699587809398990E+04   0.321474305367185E+03  1    1    8    9   0.3358049E+00   0.4896952E+00   0.7598450E+00
    1    12   0.100000000000000E+04         10     2   0.327277058113449E+04   0.713729891277682E+04   0.321503233135758E+03  1    1    8    9   0.1819265E+00   0.8432473E+00   0.7602720E+00
    1    12   0.100000000000000E+04         11     2   0.312455294926269E+04   0.719596353631498E+04   0.321766503631895E+03  1    1    8    8   0.8113824E+00   0.9899088E+00   0.7606228E+00
    1    12   0.100000000000000E+04         12     2   0.297672455453065E+04   0.713757374400236E+04   0.321766503631895E+03  1    1    8    8   0.4418114E+00   0.8439344E+00   0.7606228E+00
    1    12   0.100000000000000E+04         13     2   0.291558306549134E+04   0.699639842423281E+04   0.321766503631895E+03  1    1    8    8   0.2889577E+00   0.4909961E+00   0.7606228E+00
    1    12   0.100000000000000E+04         14     2   0.297672455453065E+04   0.685522310446326E+04   0.321766503631895E+03  1    1    8    8   0.4418114E+00   0.1380578E+00   0.7606228E+00
    1    12   0.100000000000000E+04         15     2   0.312503247406975E+04   0.679683382406382E+04   0.321753989628265E+03  1    1    9    8   0.8125812E+00   0.9920846E+00   0.7605348E+00
    1    12   0.100000000000000E+04         16     2   0.327277058113449E+04   0.685492778216966E+04   0.321503233135758E+03  1    1    8    9   0.1819265E+00   0.1373195E+00   0.7602720E+00
    1    12   0.100000000000000E+04         17     2   0.332055351360604E+04   0.699629043625226E+04   0.323065949127830E+03  1    1    8    9   0.3013838E+00   0.4907261E+00   0.7833403E+00
    1    12   0.100000000000000E+04         18     2   0.325930006971226E+04   0.713771184776250E+04   0.323095017490943E+03  1    1    8    9   0.1482502E+00   0.8442796E+00   0.7837694E+00
    1    12   0.100000000000000E+04         19     2   0.311183896297122E+04   0.719632715407900E+04   0.323362356295076E+03  1    1    8    8   0.7795974E+00   0.9908179E+00   0.7840713E+00
    1    12   0.100000000000000E+04         20     2   0.296468717461628E+04   0.713793634107793E+04   0.323362356295076E+03  1    1    8    8   0.4117179E+00   0.8448409E+00   0.7840713E+00
    1    12   0.100000000000000E+04         21     2   0.290382552844115E+04   0.699675855347947E+04   0.323362356295076E+03  1    1    8    8   0.2595638E+00   0.4918964E+00   0.7840713E+00
    1    12   0.100000000000000E+04         22     2   0.296468717461628E+04   0.685558076588102E+04   0.323362356295076E+03  1    1    8    8   0.4117179E+00   0.1389519E+00   0.7840713E+00
    1    12   0.100000000000000E+04         23     2   0.311226286507597E+04   0.679719031611001E+04   0.323350634369283E+03  1    1    9    8   0.7806572E+00   0.9929758E+00   0.7839978E+00
    1    12   0.100000000000000E+04         24     2   0.325930006971226E+04   0.685533953368068E+04   0.323095017490943E+03  1    1    8    9   0.1482502E+00   0.1383488E+00   0.7837694E+00
    1    12   0.100000000000000E+04         25     2   0.330002570405997E+04   0.699690895288619E+04   0.325467930940643E+03  1    1    8    9   0.2500643E+00   0.4922724E+00   0.8187975E+00
    1    12   0.100000000000000E+04         26     2   0.323921645910464E+04   0.713833125348608E+04   0.325497211477821E+03  1    1    8    9   0.9804115E-01   0.8458281E+00   0.8192297E+00
    1    12   0.100000000000000E+04         27     2   0.309287700942087E+04   0.719687259264304E+04   0.325769852553995E+03  1    1    8    8   0.7321925E+00   0.9921815E+00   0.8194454E+00
    1    12   0.100000000000000E+04         28     2   0.294673432854806E+04   0.713848024857585E+04   0.325769852553995E+03  1    1    8    8   0.3668358E+00   0.8462006E+00   0.8194454E+00
    1    12   0.100000000000000E+04         29     2   0.288629004694061E+04   0.699729875915314E+04   0.325769852553995E+03  1    1    8    8   0.2157251E+00   0.4932469E+00   0.8194454E+00
    1    12   0.100000000000000E+04         30     2   0.294673432854806E+04   0.685611726973043E+04   0.325769852553995E+03  1    1    8    8   0.3668358E+00   0.1402932E+00   0.8194454E+00
    1    12   0.100000000000000E+04         31     2   0.309321825595194E+04   0.679772510918542E+04   0.325759168476594E+03  1    1    9    8   0.7330456E+00   0.9943128E+00   0.8193917E+00
    1    12   0.100000000000000E+04         32     2   0.323921645910464E+04   0.685595716418298E+04   0.325497211477821E+03  1    1    8    9   0.9804115E-01   0.1398929E+00   0.8192297E+00
    1    12   0.100000000000000E+04         33     2   0.326614296355930E+04   0.699793982258387E+04   0.329510258014259E+03  1    1    8    9   0.1653574E+00   0.4948496E+00   0.8784688E+00
    1    12   0.100000000000000E+04         34     2   0.320606690337600E+04   0.713936360501223E+04   0.329539895621990E+03  1    1    8    9   0.1516726E-01   0.8484090E+00   0.8789063E+00
    1    12   0.100000000000000E+04         35     2   0.306156227603665E+04   0.719778168869874E+04   0.329819205548444E+03  1    1    8    8   0.6539057E+00   0.9944542E+00   0.8789439E+00
    1    12   0.100000000000000E+04         36     2   0.291708608652377E+04   0.713938679276547E+04   0.329819205548444E+03  1    1    8    8   0.2927152E+00   0.8484670E+00   0.8789439E+00
    1    12   0.100000000000000E+04         37     2   0.285733106196603E+04   0.699819913341997E+04   0.329819205548444E+03  1    1    8    8   0.1433277E+00   0.4954978E+00   0.8789439E+00
    1    12   0.100000000000000E+04         38     2   0.291708608652377E+04   0.685701147407448E+04   0.329819205548444E+03  1    1    8    8   0.2927152E+00   0.1425287E+00   0.8789439E+00
    1    12   0.100000000000000E+04         39     2   0.306176781729273E+04   0.679861657768089E+04   0.329809844264799E+03  1    1    9    8   0.6544195E+00   0.9965414E+00   0.8789171E+00
    1    12   0.100000000000000E+04         40     2   0.320606690337600E+04   0.685698655698221E+04   0.329539895621990E+03  1    1    8    9   0.1516726E-01   0.1424664E+00   0.8789063E+00
    1    12   0.100000000000000E+04         41     2   0.321939234937573E+04   0.699938305830714E+04   0.335252466610600E+03  1    1    8    9   0.4848087E-01   0.4984576E+00   0.9632332E+00
    1    12   0.100000000000000E+04         42     2   0.316049562124456E+04   0.714065602118932E+04   0.335566594288928E+03  1    1    8    8   0.9012391E+00   0.8516401E+00   0.9633923E+00
    1    12   0.100000000000000E+04         43     2   0.301832064271244E+04   0.719905448992246E+04   0.335566594288928E+03  1    1    8    8   0.5458016E+00   0.9976362E+00   0.9633923E+00
    1    12   0.100000000000000E+04         44     2   0.287614566418033E+04   0.714065602118932E+04   0.335566594288928E+03  1    1    8    8   0.1903642E+00   0.8516401E+00   0.9633923E+00
    1    12   0.100000000000000E+04         45     2   0.281734241526903E+04   0.699945972349892E+04   0.335566594288928E+03  1    1    8    8   0.4335604E-01   0.4986493E+00   0.9633923E+00
    1    12   0.100000000000000E+04         46     2   0.287614566418033E+04   0.685826342580853E+04   0.335566594288928E+03  1    1    8    8   0.1903642E+00   0.1456586E+00   0.9633923E+00
    1    12   0.100000000000000E+04         47     2   0.301834044178621E+04   0.679986494171449E+04   0.335558210375987E+03  1    1    9    8   0.5458511E+00   0.9996624E+00   0.9633905E+00
    1    12   0.100000000000000E+04         48     2   0.316049562124456E+04   0.685826342580853E+04   0.335566594288928E+03  1    1    8    8   0.9012391E+00   0.1456586E+00   0.9633923E+00
    2    12   0.200000000000000E+04          1     1   0.215942790603322E+04   0.819534691671175E+04   0.306611313448376E+03  1    1    5    6   0.3985698E+00   0.4883673E+00   0.5338987E+00
    2    12   0.200000000000000E+04          2     1   0.209585098528481E+04   0.833697005287860E+04   0.306635719032029E+03  1    1    5    6   0.2396275E+00   0.8424251E+00   0.5342546E+00
    2    12   0.200000000000000E+04          3     1   0.194257948141841E+04   0.839573932426164E+04   0.306742090502601E+03  1    1    5    5   0.8564487E+00   0.9893483E+00   0.5343740E+00
    2    12   0.200000000000000E+04          4     1   0.178965508475378E+04   0.833725311824979E+04   0.306742090502601E+03  1    1    5    5   0.4741377E+00   0.8431328E+00   0.5343740E+00
    2    12   0.200000000000000E+04          5     1   0.172640590086417E+04   0.819584468864580E+04   0.306742090502601E+03  1    1    5    5   0.3160148E+00   0.4896117E+00   0.5343740E+00
    2    12   0.200000000000000E+04          6     1   0.178965508475378E+04   0.805443625904181E+04   0.306742090502601E+03  1    1    5    5   0.4741377E+00   0.1360906E+00   0.5343740E+00
    2    12   0.200000000000000E+04          7     1   0.194306640506288E+04   0.799595086146874E+04   0.306731180079844E+03  1    1    6    5   0.8576660E+00   0.9898772E+00   0.5342568E+00
    2    12   0.200000000000000E+04          8     1   0.209585098528481E+04   0.805411094109389E+04   0.306635719032029E+03  1    1    5    6   0.2396275E+00   0.1352774E+00   0.5342546E+00
    2    12   0.200000000000000E+04          9     2   0.347574398213484E+04   0.699175476641627E+04   0.305975188597970E+03  1    1    8    9   0.6893600E+00   0.4793869E+00   0.5310527E+00
    2    12   0.200000000000000E+04         10     2   0.341113238932488E+04   0.713316965810662E+04   0.306002747284310E+03  1    1    8    9   0.5278310E+00   0.8329241E+00   0.5314595E+00
    2    12   0.200000000000000E+04         11     2   0.325523874509009E+04   0.719212143860949E+04   0.306036225692704E+03  1    1    8    9   0.1380969E+00   0.9803036E+00   0.5319537E+00
    2    12   0.200000000000000E+04         12     2   0.310018487744678E+04   0.713394812183498E+04   0.306202784425529E+03  1    1    8    8   0.7504622E+00   0.8348703E+00   0.5319398E+00
    2    12   0.200000000000000E+04         13     2   0.303617320481074E+04   0.699279747798205E+04   0.306202784425529E+03  1    1    8    8   0.5904330E+00   0.4819937E+00   0.5319398E+00
    2    12   0.200000000000000E+04         14     2   0.310018487744678E+04   0.685164683412911E+04   0.306202784425529E+03  1    1    8    8   0.7504622E+00   0.1291171E+00   0.5319398E+00
    2    12   0.200000000000000E+04         15     2   0.325630397491637E+04   0.679303899293505E+04   0.306008709990330E+03  1    1    9    9   0.1407599E+00   0.9825975E+00   0.5316249E+00
    2    12   0.200000000000000E+04         16     2   0.341113238932488E+04   0.685081036197316E+04   0.306002747284310E+03  1    1    8    9   0.5278310E+00   0.1270259E+00   0.5314595E+00
    2    12   0.200000000000000E+04         17     2   0.346129099650275E+04   0.699216709139694E+04   0.307491503658889E+03  1    1    8    9   0.6532275E+00   0.4804177E+00   0.5534360E+00
    2    12   0.200000000000000E+04         18     2   0.339699215020677E+04   0.713358257578575E+04   0.307519196285766E+03  1    1    8    9   0.4924804E+00   0.8339564E+00   0.5538448E+00
    2    12   0.200000000000000E+04         19     2   0.324185309491905E+04   0.719253460336749E+04   0.307552837405687E+03  1    1    8    9   0.1046327E+00   0.9813365E+00   0.5543414E+00
    2    12   0.200000000000000E+04         20     2   0.308758242313005E+04   0.713431065553252E+04   0.307727342663869E+03  1    1    8    8   0.7189561E+00   0.8357766E+00   0.5543407E+00
    2    12   0.200000000000000E+04         21     2   0.302386373010725E+04   0.699315754428202E+04   0.307727342663869E+03  1    1    8    8   0.5596593E+00   0.4828939E+00   0.5543407E+00
    2    12   0.200000000000000E+04         22     2   0.308758242313005E+04   0.685200443303153E+04   0.307727342663869E+03  1    1    8    8   0.7189561E+00   0.1300111E+00   0.5543407E+00
    2    12   0.200000000000000E+04         23     2   0.324285801731817E+04   0.679345004794955E+04   0.307527399343721E+03  1    1    9    9   0.1071450E+00   0.9836251E+00   0.5540465E+00
    2    12   0.200000000000000E+04         24     2   0.339699215020677E+04   0.685122209622724E+04   0.307519196285766E+03  1    1    8    9   0.4924804E+00   0.1280552E+00   0.5538448E+00
    2    12   0.200000000000000E+04         25     2   0.343974258408882E+04   0.699278558210818E+04   0.309779805406352E+03  1    1    8    9   0.5993565E+00   0.4819640E+00   0.5872150E+00
    2    12   0.200000000000000E+04         26     2   0.337591002144081E+04   0.713420195554938E+04   0.309807700165603E+03  1    1    8    9   0.4397751E+00   0.8355049E+00   0.5876268E+00
    2    12   0.200000000000000E+04         27     2   0.322189600662903E+04   0.719315435375134E+04   0.309841586836784E+03  1    1    8    9   0.5474002E-01   0.9828859E+00   0.5881270E+00
    2    12   0.200000000000000E+04         28     2   0.306878681112484E+04   0.713485446796130E+04   0.310027284469268E+03  1    1    8    8   0.6719670E+00   0.8371362E+00   0.5881345E+00
    2    12   0.200000000000000E+04         29     2   0.300550507514211E+04   0.699369765553359E+04   0.310027284469268E+03  1    1    8    8   0.5137627E+00   0.4842441E+00   0.5881345E+00
    2    12   0.200000000000000E+04         30     2   0.306878681112484E+04   0.685254084310588E+04   0.310027284469268E+03  1    1    8    8   0.6719670E+00   0.1313521E+00   0.5881345E+00
    2    12   0.200000000000000E+04         31     2   0.322281111203382E+04   0.679406669040653E+04   0.309819084445030E+03  1    1    9    9   0.5702778E-01   0.9851667E+00   0.5878804E+00
    2    12   0.200000000000000E+04         32     2   0.337591002144081E+04   0.685183970084399E+04   0.309807700165603E+03  1    1    8    9   0.4397751E+00   0.1295993E+00   0.5876268E+00
    2    12   0.200000000000000E+04         33     2   0.340417525946106E+04   0.699381640860101E+04   0.313630818789149E+03  1    1    8    9   0.5104381E+00   0.4845410E+00   0.6440623E+00
    2    12   0.200000000000000E+04         34     2   0.334111233410960E+04   0.713523426380858E+04   0.313659053719654E+03  1    1    8    9   0.3527808E+00   0.8380857E+00   0.6444791E+00
    2    12   0.200000000000000E+04         35     2   0.318900516202862E+04   0.719414554283483E+04   0.313895733361867E+03  1    1    8    8   0.9725129E+00   0.9853639E+00   0.6449749E+00
    2    12   0.200000000000000E+04         36     2   0.303774678261862E+04   0.713576085369681E+04   0.313895733361867E+03  1    1    8    8   0.5943670E+00   0.8394021E+00   0.6449749E+00
    2    12   0.200000000000000E+04         37     2   0.297518665968984E+04   0.699459787242475E+04   0.313895733361867E+03  1    1    8    8   0.4379666E+00   0.4864947E+00   0.6449749E+00
    2    12   0.200000000000000E+04         38     2   0.303774678261862E+04   0.685343489115269E+04   0.313895733361867E+03  1    1    8    8   0.5943670E+00   0.1335872E+00   0.6449749E+00
    2    12   0.200000000000000E+04         39     2   0.318976912833985E+04   0.679505180379138E+04   0.313878084415709E+03  1    1    9    8   0.9744228E+00   0.9876295E+00   0.6447969E+00
    2    12   0.200000000000000E+04         40     2   0.334111233410960E+04   0.685286905050027E+04   0.313659053719654E+03  1    1    8    9   0.3527808E+00   0.1321726E+00   0.6444791E+00
    2    12   0.200000000000000E+04         41     2   0.335510029543382E+04   0.699525958383674E+04   0.319101262360043E+03  1    1    8    9   0.3877507E+00   0.4881490E+00   0.7248150E+00
    2    12   0.200000000000000E+04         42     2   0.329309929765318E+04   0.713667951354334E+04   0.319129980510799E+03  1    1    8    9   0.2327482E+00   0.8416988E+00   0.7252389E+00
    2    12   0.200000000000000E+04         43     2   0.314373362350235E+04   0.719541812158669E+04   0.319386358565187E+03  1    1    8    8   0.8593341E+00   0.9885453E+00   0.7256506E+00
    2    12   0.200000000000000E+04         44     2   0.299488448152314E+04   0.713702986027328E+04   0.319386358565187E+03  1    1    8    8   0.4872112E+00   0.8425747E+00   0.7256506E+00
    2    12   0.200000000000000E+04         45     2   0.293332081373570E+04   0.699585824216621E+04   0.319386358565187E+03  1    1    8    8   0.3333020E+00   0.4896456E+00   0.7256506E+00
    2    12   0.200000000000000E+04         46     2   0.299488448152314E+04   0.685468662405914E+04   0.319386358565187E+03  1    1    8    8   0.4872112E+00   0.1367166E+00   0.7256506E+00
    2    12   0.200000000000000E+04         47     2   0.314429736748524E+04   0.679629914099463E+04   0.319372508027054E+03  1    1    9    8   0.8607434E+00   0.9907479E+00   0.7255385E+00
    2    12   0.200000000000000E+04         48     2   0.329309929765318E+04   0.685431015813885E+04   0.319129980510799E+03  1    1    8    9   0.2327482E+00   0.1357754E+00   0.7252389E+00
    3    12   0.300000000000000E+04          1     1   0.224444828630700E+04   0.819301671943539E+04   0.291615851049233E+03  1    1    5    6   0.6111207E+00   0.4825418E+00   0.3152216E+00
    3    12   0.300000000000000E+04          2     1   0.217818189922363E+04   0.833476171474611E+04   0.291639245916869E+03  1    1    5    6   0.4454547E+00   0.8369043E+00   0.3155627E+00
    3    12   0.300000000000000E+04          3     1   0.201830149463986E+04   0.839375332800701E+04   0.291633290015725E+03  1    1    5    6   0.4575374E-01   0.9843833E+00   0.3154759E+00
    3    12   0.300000000000000E+04          4     1   0.185910245742227E+04   0.833527749311993E+04   0.291683900685695E+03  1    1    5    5   0.6477561E+00   0.8381937E+00   0.3153689E+00
    3    12   0.300000000000000E+04          5     1   0.179327971606368E+04   0.819376473336634E+04   0.291683900685695E+03  1    1    5    5   0.4831993E+00   0.4844118E+00   0.3153689E+00
    3    12   0.300000000000000E+04          6     1   0.185910245742227E+04   0.805225197361276E+04   0.291683900685695E+03  1    1    5    5   0.6477561E+00   0.1306299E+00   0.3153689E+00
    3    12   0.300000000000000E+04          7     1   0.201908673725035E+04   0.799365713998054E+04   0.291615000826303E+03  1    1    6    6   0.4771684E-01   0.9841428E+00   0.3152368E+00
    3    12   0.300000000000000E+04          8     1   0.217818189922363E+04   0.805165921780463E+04   0.291639245916869E+03  1    1    5    6   0.4454547E+00   0.1291480E+00   0.3155627E+00
    3    12   0.300000000000000E+04          9     2   0.362433380258488E+04   0.698754636496356E+04   0.291105773428563E+03  1    1    8   10   0.6083451E-01   0.4688659E+00   0.3132350E+00
    3    12   0.300000000000000E+04         10     2   0.355637327820444E+04   0.712904057649787E+04   0.291235862426483E+03  1    1    8    9   0.8909332E+00   0.8226014E+00   0.3134761E+00
    3    12   0.300000000000000E+04         11     2   0.339272890440313E+04   0.718798988626906E+04   0.291267756381725E+03  1    1    8    9   0.4818223E+00   0.9699747E+00   0.3139469E+00
    3    12   0.300000000000000E+04         12     2   0.322958645733913E+04   0.713021028112262E+04   0.291246282488727E+03  1    1    8    9   0.7396614E-01   0.8255257E+00   0.3136299E+00
    3    12   0.300000000000000E+04         13     2   0.316242424387661E+04   0.698919716113769E+04   0.291334371518302E+03  1    1    8    8   0.9060606E+00   0.4729929E+00   0.3134732E+00
    3    12   0.300000000000000E+04         14     2   0.322958645733913E+04   0.684794994304528E+04   0.291246282488727E+03  1    1    8    9   0.7396614E-01   0.1198749E+00   0.3136299E+00
    3    12   0.300000000000000E+04         15     2   0.339441655020161E+04   0.678893020032059E+04   0.291214379997839E+03  1    1    9    9   0.4860414E+00   0.9723255E+00   0.3132046E+00
    3    12   0.300000000000000E+04         16     2   0.355637327820444E+04   0.684669311434212E+04   0.291235862426483E+03  1    1    8    9   0.8909332E+00   0.1167328E+00   0.3134761E+00
    3    12   0.300000000000000E+04         17     2   0.360907517713441E+04   0.698801204724339E+04   0.292536269078400E+03  1    1    8   10   0.2268794E-01   0.4700301E+00   0.3344652E+00
    3    12   0.300000000000000E+04         18     2   0.354153001382864E+04   0.712945347687118E+04   0.292680541516666E+03  1    1    8    9   0.8538250E+00   0.8236337E+00   0.3348019E+00
    3    12   0.300000000000000E+04         19     2   0.337867774567298E+04   0.718840303371089E+04   0.292712590482688E+03  1    1    8    9   0.4466944E+00   0.9710076E+00   0.3352750E+00
    3    12   0.300000000000000E+04         20     2   0.321632497472410E+04   0.713062318639840E+04   0.292691012222424E+03  1    1    8    9   0.4081244E-01   0.8265580E+00   0.3349565E+00
    3    12   0.300000000000000E+04         21     2   0.314953692174197E+04   0.698955716450197E+04   0.292790820397146E+03  1    1    8    8   0.8738423E+00   0.4738929E+00   0.3348733E+00
    3    12   0.300000000000000E+04         22     2   0.321632497472410E+04   0.684836166531077E+04   0.292691012222424E+03  1    1    8    9   0.4081244E-01   0.1209042E+00   0.3349565E+00
    3    12   0.300000000000000E+04         23     2   0.338030153766509E+04   0.678934093582135E+04   0.292662202124828E+03  1    1    9    9   0.4507538E+00   0.9733523E+00   0.3345799E+00
    3    12   0.300000000000000E+04         24     2   0.354153001382864E+04   0.684710483133998E+04   0.292680541516666E+03  1    1    8    9   0.8538250E+00   0.1177621E+00   0.3348019E+00
    3    12   0.300000000000000E+04         25     2   0.358640591634989E+04   0.698866238414501E+04   0.294834161403951E+03  1    1    8    9   0.9660148E+00   0.4716560E+00   0.3665929E+00
    3    12   0.300000000000000E+04         26     2   0.351939972251857E+04   0.713007283067594E+04   0.294860735970835E+03  1    1    8    9   0.7984993E+00   0.8251821E+00   0.3669852E+00
    3    12   0.300000000000000E+04         27     2   0.335772842966880E+04   0.718902275812034E+04   0.294893018866761E+03  1    1    8    9   0.3943211E+00   0.9725569E+00   0.3674617E+00