MODPATH_ENDPOINT_FILE 6 0                                                       
 1        120        120        120   0.209999984375000E+06
         0          0        120          0          0          0
         2
PG01            
PG02            
END HEADER
          1     1  2   0.000000000000000E+00   0.455955431032740E+05  1    1    5    2 6          1   0.2500000E+00   0.2500000E+00   0.1000000E+01   0.500000000000000E+03   0.810000000000000E+04   0.339081298828125E+03  1    5   13   13 4          2   0.4930343E+00   0.1000000E+01   0.1622601E+00   0.499721371642731E+04   0.520000000000000E+04   0.162260127629962E+02 PG01
          2     1  2   0.000000000000000E+00   0.407886996058530E+05  1    1    5    2 6          1   0.7500000E+00   0.2500000E+00   0.1000000E+01   0.700000000000000E+03   0.810000000000000E+04   0.339081298828125E+03  1    5   13   13 4          2   0.5574090E+00   0.1000000E+01   0.2169779E+00   0.502296361997366E+04   0.520000000000000E+04   0.216977939195255E+02 PG01
          3     1  2   0.000000000000000E+00   0.478053827836743E+05  1    1    5    2 6          1   0.2500000E+00   0.7500000E+00   0.1000000E+01   0.500000000000000E+03   0.830000000000000E+04   0.339081298828125E+03  1    5   13   13 4          2   0.5971603E+00   0.1000000E+01   0.1423015E+00   0.503886412580250E+04   0.520000000000000E+04   0.142301488570464E+02 PG01
          4     1  2   0.000000000000000E+00   0.429945710448964E+05  1    1    5    2 6          1   0.7500000E+00   0.7500000E+00   0.1000000E+01   0.700000000000000E+03   0.830000000000000E+04   0.339081298828125E+03  1    5   13   13 4          2   0.6648296E+00   0.1000000E+01   0.1924257E+00   0.506593183993271E+04   0.520000000000000E+04   0.192425680304257E+02 PG01
          5     1  2   0.000000000000000E+00   0.276235880534576E+05  1    1    5    6 6          1   0.2500000E+00   0.2500000E+00   0.1000000E+01   0.210000000000000E+04   0.810000000000000E+04   0.338573516845703E+03  1    5   13   13 4          2   0.9078766E+00   0.1000000E+01   0.5910251E+00   0.516315063838885E+04   0.520000000000000E+04   0.591025096476986E+02 PG01
          6     1  2   0.000000000000000E+00   0.271678706627209E+05  1    1    5    6 6          1   0.7500000E+00   0.2500000E+00   0.1000000E+01   0.230000000000000E+04   0.810000000000000E+04   0.338573516845703E+03  1    5   13   13 4          2   0.9643649E+00   0.1000000E+01   0.6229676E+00   0.518574596385090E+04   0.520000000000000E+04   0.622967597746280E+02 PG01
          7     1  2   0.000000000000000E+00   0.305054065061526E+05  1    1    5    6 6          1   0.2500000E+00   0.7500000E+00   0.1000000E+01   0.210000000000000E+04   0.830000000000000E+04   0.338573516845703E+03  1    5   13   13 2          2   0.1000000E+01   0.9857694E+00   0.5126177E+00   0.520000000000000E+04   0.519430774758644E+04   0.512617656004621E+02 PG01
          8     1  2   0.000000000000000E+00   0.310082416489551E+05  1    1    5    6 6          1   0.7500000E+00   0.7500000E+00   0.1000000E+01   0.230000000000000E+04   0.830000000000000E+04   0.338573516845703E+03  1    5   13   13 2          2   0.1000000E+01   0.9234498E+00   0.5231284E+00   0.520000000000000E+04   0.516937993296949E+04   0.523128377139986E+02 PG01
          9     1  2   0.000000000000000E+00   0.420179633185658E+05  1    1    6    2 6          1   0.2500000E+00   0.2500000E+00   0.1000000E+01   0.500000000000000E+03   0.770000000000000E+04   0.339077178955078E+03  1    5   13   13 4          2   0.3147970E+00   0.1000000E+01   0.2069815E+00   0.492591880959749E+04   0.520000000000000E+04   0.206981521392393E+02 PG01
         10     1  2   0.000000000000000E+00   0.372500628082373E+05  1    1    6    2 6          1   0.7500000E+00   0.2500000E+00   0.1000000E+01   0.700000000000000E+03   0.770000000000000E+04   0.339077178955078E+03  1    5   13   13 4          2   0.3706321E+00   0.1000000E+01   0.2735815E+00   0.494825282999797E+04   0.520000000000000E+04   0.273581465480555E+02 PG01
         11     1  2   0.000000000000000E+00   0.436823894875324E+05  1    1    6    2 6          1   0.2500000E+00   0.7500000E+00   0.1000000E+01   0.500000000000000E+03   0.790000000000000E+04   0.339077178955078E+03  1    5   13   13 4          2   0.3998991E+00   0.1000000E+01   0.1844753E+00   0.495995965447834E+04   0.520000000000000E+04   0.184475276293413E+02 PG01
         12     1  2   0.000000000000000E+00   0.388791009871354E+05  1    1    6    2 6          1   0.7500000E+00   0.7500000E+00   0.1000000E+01   0.700000000000000E+03   0.790000000000000E+04   0.339077178955078E+03  1    5   13   13 4          2   0.4596735E+00   0.1000000E+01   0.2455553E+00   0.498386939339457E+04   0.520000000000000E+04   0.245555272454895E+02 PG01
         13     1  2   0.000000000000000E+00   0.336781837885815E+05  1    1    6    3 6          1   0.2500000E+00   0.2500000E+00   0.1000000E+01   0.900000000000000E+03   0.770000000000000E+04   0.339005615234375E+03  1    5   13   13 4          2   0.4174433E+00   0.1000000E+01   0.3385157E+00   0.496697730187542E+04   0.520000000000000E+04   0.338515702544086E+02 PG01
         14     1  2   0.000000000000000E+00   0.308960470580771E+05  1    1    6    3 6          1   0.7500000E+00   0.2500000E+00   0.1000000E+01   0.110000000000000E+04   0.770000000000000E+04   0.339005615234375E+03  1    5   13   13 4          2   0.4621652E+00   0.1000000E+01   0.3979491E+00   0.498486607448085E+04   0.520000000000000E+04   0.397949143585903E+02 PG01
         15     1  2   0.000000000000000E+00   0.353316783104576E+05  1    1    6    3 6          1   0.2500000E+00   0.7500000E+00   0.1000000E+01   0.900000000000000E+03   0.790000000000000E+04   0.339005615234375E+03  1    5   13   13 4          2   0.5098309E+00   0.1000000E+01   0.3019145E+00   0.500393236331976E+04   0.520000000000000E+04   0.301914493388919E+02 PG01
         16     1  2   0.000000000000000E+00   0.325465307317760E+05  1    1    6    3 6          1   0.7500000E+00   0.7500000E+00   0.1000000E+01   0.110000000000000E+04   0.790000000000000E+04   0.339005615234375E+03  1    5   13   13 4          2   0.5576099E+00   0.1000000E+01   0.3570768E+00   0.502304394254709E+04   0.520000000000000E+04   0.357076750695505E+02 PG01
         17     1  2   0.000000000000000E+00   0.252136058933267E+05  1    1    6    5 6          1   0.2500000E+00   0.2500000E+00   0.1000000E+01   0.170000000000000E+04   0.770000000000000E+04   0.338751922607422E+03  1    5   13   13 4          2   0.5979635E+00   0.1000000E+01   0.5564148E+00   0.503918539624732E+04   0.520000000000000E+04   0.556414764990082E+02 PG01
         18     1  2   0.000000000000000E+00   0.240073047926333E+05  1    1    6    5 6          1   0.7500000E+00   0.2500000E+00   0.1000000E+01   0.190000000000000E+04   0.770000000000000E+04   0.338751922607422E+03  1    5   13   13 4          2   0.6545357E+00   0.1000000E+01   0.6020384E+00   0.506181428804525E+04   0.520000000000000E+04   0.602038374032136E+02 PG01
         19     1  2   0.000000000000000E+00   0.268951513057548E+05  1    1    6    5 6          1   0.2500000E+00   0.7500000E+00   0.1000000E+01   0.170000000000000E+04   0.790000000000000E+04   0.338751922607422E+03  1    5   13   13 4          2   0.6974247E+00   0.1000000E+01   0.5091617E+00   0.507896988014060E+04   0.520000000000000E+04   0.509161738294401E+02 PG01
         20     1  2   0.000000000000000E+00   0.256773920648730E+05  1    1    6    5 6          1   0.7500000E+00   0.7500000E+00   0.1000000E+01   0.190000000000000E+04   0.790000000000000E+04   0.338751922607422E+03  1    5   13   13 4          2   0.7510884E+00   0.1000000E+01   0.5541466E+00   0.510043537437106E+04   0.520000000000000E+04   0.554146601214745E+02 PG01
         21     1  2   0.000000000000000E+00   0.230289771901988E+05  1    1    6    6 6          1   0.2500000E+00   0.2500000E+00   0.1000000E+01   0.210000000000000E+04   0.770000000000000E+04   0.338567504882812E+03  1    5   13   13 4          2   0.7168776E+00   0.1000000E+01   0.6444105E+00   0.508675105576479E+04   0.520000000000000E+04   0.644410456390286E+02 PG01
         22     1  2   0.000000000000000E+00   0.222642867928206E+05  1    1    6    6 6          1   0.7500000E+00   0.2500000E+00   0.1000000E+01   0.230000000000000E+04   0.770000000000000E+04   0.338567504882812E+03  1    5   13   13 4          2   0.7864256E+00   0.1000000E+01   0.6851854E+00   0.511457023497774E+04   0.520000000000000E+04   0.685185405001466E+02 PG01
         23     1  2   0.000000000000000E+00   0.247251146531741E+05  1    1    6    6 6          1   0.2500000E+00   0.7500000E+00   0.1000000E+01   0.210000000000000E+04   0.790000000000000E+04   0.338567504882812E+03  1    5   13   13 4          2   0.8113502E+00   0.1000000E+01   0.5950523E+00   0.512454007264817E+04   0.520000000000000E+04   0.595052278282702E+02 PG01
         24     1  2   0.000000000000000E+00   0.246331163553795E+05  1    1    6    6 6          1   0.7500000E+00   0.7500000E+00   0.1000000E+01   0.230000000000000E+04   0.790000000000000E+04   0.338567504882812E+03  1    5   13   13 4          2   0.8739119E+00   0.1000000E+01   0.6832013E+00   0.514956477788082E+04   0.520000000000000E+04   0.683201258448141E+02 PG01
         25     1  2   0.000000000000000E+00   0.391351198835513E+05  1    1    7    2 6          1   0.2500000E+00   0.2500000E+00   0.1000000E+01   0.500000000000000E+03   0.730000000000000E+04   0.339072814941406E+03  1    5   13   13 4          2   0.1676339E+00   0.1000000E+01   0.2609359E+00   0.486705355191154E+04   0.520000000000000E+04   0.260935904997231E+02 PG01
         26     1  2   0.000000000000000E+00   0.344466792062939E+05  1    1    7    2 6          1   0.7500000E+00   0.2500000E+00   0.1000000E+01   0.700000000000000E+03   0.730000000000000E+04   0.339072814941406E+03  1    5   13   13 4          2   0.2132316E+00   0.1000000E+01   0.3437167E+00   0.488529263625659E+04   0.520000000000000E+04   0.343716699764393E+02 PG01
         27     1  2   0.000000000000000E+00   0.404690711525570E+05  1    1    7    2 6          1   0.2500000E+00   0.7500000E+00   0.1000000E+01   0.500000000000000E+03   0.750000000000000E+04   0.339072814941406E+03  1    5   13   13 4          2   0.2379822E+00   0.1000000E+01   0.2360349E+00   0.489519289296701E+04   0.520000000000000E+04   0.236034854171634E+02 PG01
         28     1  2   0.000000000000000E+00   0.357792144396465E+05  1    1    7    2 6          1   0.7500000E+00   0.7500000E+00   0.1000000E+01   0.700000000000000E+03   0.750000000000000E+04   0.339072814941406E+03  1    5   13   13 4          2   0.2882815E+00   0.1000000E+01   0.3070657E+00   0.491531258716781E+04   0.520000000000000E+04   0.307065663805126E+02 PG01
         29     1  2   0.000000000000000E+00   0.260561966906560E+05  1    1    7    4 6          1   0.2500000E+00   0.2500000E+00   0.1000000E+01   0.130000000000000E+04   0.730000000000000E+04   0.338892395019531E+03  1    5   13   13 4          2   0.3291273E+00   0.1000000E+01   0.5411237E+00   0.493165091703370E+04   0.520000000000000E+04   0.541123708385154E+02 PG01
         30     1  2   0.000000000000000E+00   0.241754855120667E+05  1    1    7    4 6          1   0.7500000E+00   0.2500000E+00   0.1000000E+01   0.150000000000000E+04   0.730000000000000E+04   0.338892395019531E+03  1    5   13   13 4          2   0.3692090E+00   0.1000000E+01   0.6037636E+00   0.494768359276323E+04   0.520000000000000E+04   0.603763588028194E+02 PG01
         31     1  2   0.000000000000000E+00   0.272442123303035E+05  1    1    7    4 6          1   0.2500000E+00   0.7500000E+00   0.1000000E+01   0.130000000000000E+04   0.750000000000000E+04   0.338892395019531E+03  1    5   13   13 4          2   0.4150343E+00   0.1000000E+01   0.4991671E+00   0.496601373986008E+04   0.520000000000000E+04   0.499167055748379E+02 PG01
         32     1  2   0.000000000000000E+00   0.253705985465411E+05  1    1    7    4 6          1   0.7500000E+00   0.7500000E+00   0.1000000E+01   0.150000000000000E+04   0.750000000000000E+04   0.338892395019531E+03  1    5   13   13 4          2   0.4569466E+00   0.1000000E+01   0.5556347E+00   0.498277863625451E+04   0.520000000000000E+04   0.555634712634840E+02 PG01
         33     1  2   0.000000000000000E+00   0.203600674014900E+05  1    1    7    6 6          1   0.2500000E+00   0.2500000E+00   0.1000000E+01   0.210000000000000E+04   0.730000000000000E+04   0.338561004638672E+03  1    5   13   13 4          2   0.5452918E+00   0.1000000E+01   0.7429034E+00   0.501811671820354E+04   0.520000000000000E+04   0.742903385223821E+02 PG01
         34     1  2   0.000000000000000E+00   0.194853348689889E+05  1    1    7    6 6          1   0.7500000E+00   0.2500000E+00   0.1000000E+01   0.230000000000000E+04   0.730000000000000E+04   0.338561004638672E+03  1    5   13   13 4          2   0.6119046E+00   0.1000000E+01   0.7856263E+00   0.504476183771798E+04   0.520000000000000E+04   0.785626321606749E+02 PG01
         35     1  2   0.000000000000000E+00   0.215882785866369E+05  1    1    7    6 6          1   0.2500000E+00   0.7500000E+00   0.1000000E+01   0.210000000000000E+04   0.750000000000000E+04   0.338561004638672E+03  1    5   13   13 4          2   0.6304206E+00   0.1000000E+01   0.6940963E+00   0.505216824431698E+04   0.520000000000000E+04   0.694096314275751E+02 PG01
         36     1  2   0.000000000000000E+00   0.207790213186276E+05  1    1    7    6 6          1   0.7500000E+00   0.7500000E+00   0.1000000E+01   0.230000000000000E+04   0.750000000000000E+04   0.338561004638672E+03  1    5   13   13 4          2   0.7003041E+00   0.1000000E+01   0.7357460E+00   0.508012164050970E+04   0.520000000000000E+04   0.735746041498979E+02 PG01
         37     1  2   0.000000000000000E+00   0.368732311381801E+05  1    1    8    2 6          1   0.2500000E+00   0.2500000E+00   0.1000000E+01   0.500000000000000E+03   0.690000000000000E+04   0.339068420410156E+03  1    5   13   13 4          2   0.3883008E-01   0.1000000E+01   0.3077482E+00   0.481553203255848E+04   0.520000000000000E+04   0.307748163669880E+02 PG01
         38     1  2   0.000000000000000E+00   0.323039073567968E+05  1    1    8    2 6          1   0.7500000E+00   0.2500000E+00   0.1000000E+01   0.700000000000000E+03   0.690000000000000E+04   0.339068420410156E+03  1    5   13   13 4          2   0.7652801E-01   0.1000000E+01   0.4012995E+00   0.483061120554915E+04   0.520000000000000E+04   0.401299546532025E+02 PG01
         39     1  2   0.000000000000000E+00   0.379457775036537E+05  1    1    8    2 6          1   0.2500000E+00   0.7500000E+00   0.1000000E+01   0.500000000000000E+03   0.710000000000000E+04   0.339068420410156E+03  1    5   13   13 4          2   0.1016427E+00   0.1000000E+01   0.2836146E+00   0.484065708980113E+04   0.520000000000000E+04   0.283614555221212E+02 PG01
         40     1  2   0.000000000000000E+00   0.332994120620217E+05  1    1    8    2 6          1   0.7500000E+00   0.7500000E+00   0.1000000E+01   0.700000000000000E+03   0.710000000000000E+04   0.339068420410156E+03  1    5   13   13 4          2   0.1432393E+00   0.1000000E+01   0.3742785E+00   0.485729572977898E+04   0.520000000000000E+04   0.374278522976303E+02 PG01
         41     1  2   0.000000000000000E+00   0.183511857979935E+05  1    1    8    6 6          1   0.2500000E+00   0.2500000E+00   0.1000000E+01   0.210000000000000E+04   0.690000000000000E+04   0.338554351806641E+03  1    5   13   13 4          2   0.3722904E+00   0.1000000E+01   0.8451943E+00   0.494891617251425E+04   0.520000000000000E+04   0.845194297212170E+02 PG01
         42     1  2   0.000000000000000E+00   0.174503463050857E+05  1    1    8    6 6          1   0.7500000E+00   0.2500000E+00   0.1000000E+01   0.230000000000000E+04   0.690000000000000E+04   0.338554351806641E+03  1    5   13   13 4          2   0.4529808E+00   0.1000000E+01   0.8895441E+00   0.498119232064638E+04   0.520000000000000E+04   0.889544055661989E+02 PG01
         43     1  2   0.000000000000000E+00   0.192535430869717E+05  1    1    8    6 6          1   0.2500000E+00   0.7500000E+00   0.1000000E+01   0.210000000000000E+04   0.710000000000000E+04   0.338554351806641E+03  1    5   13   13 4          2   0.4563030E+00   0.1000000E+01   0.7985199E+00   0.498252119093025E+04   0.520000000000000E+04   0.798519879085197E+02 PG01
         44     1  2   0.000000000000000E+00   0.183709579972235E+05  1    1    8    6 6          1   0.7500000E+00   0.7500000E+00   0.1000000E+01   0.230000000000000E+04   0.710000000000000E+04   0.338554351806641E+03  1    5   13   13 4          2   0.5279638E+00   0.1000000E+01   0.8376191E+00   0.501118551390989E+04   0.520000000000000E+04   0.837619132466998E+02 PG01
         45     1  2   0.000000000000000E+00   0.350135177299034E+05  1    1    9    2 6          1   0.2500000E+00   0.2500000E+00   0.1000000E+01   0.500000000000000E+03   0.650000000000000E+04   0.339064361572266E+03  1    5   13   13 1          2   0.0000000E+00   0.9257465E+00   0.3402110E+00   0.480000000000000E+04   0.517029861299646E+04   0.340211046896542E+02 PG01
         46     1  2   0.000000000000000E+00   0.305346324418987E+05  1    1    9    2 6          1   0.7500000E+00   0.2500000E+00   0.1000000E+01   0.700000000000000E+03   0.650000000000000E+04   0.339064361572266E+03  1    5   13   13 1          2   0.0000000E+00   0.9542424E+00   0.4521219E+00   0.480000000000000E+04   0.518169695476183E+04   0.452121928720269E+02 PG01
         47     1  2   0.000000000000000E+00   0.359095932253366E+05  1    1    9    2 6          1   0.2500000E+00   0.7500000E+00   0.1000000E+01   0.500000000000000E+03   0.670000000000000E+04   0.339064361572266E+03  1    5   13   13 1          2   0.0000000E+00   0.9806604E+00   0.3287456E+00   0.480000000000000E+04   0.519226415656054E+04   0.328745645490761E+02 PG01
         48     1  2   0.000000000000000E+00   0.313753344314296E+05  1    1    9    2 6          1   0.7500000E+00   0.7500000E+00   0.1000000E+01   0.700000000000000E+03   0.670000000000000E+04   0.339064361572266E+03  1    5   13   13 4          2   0.1285173E-01   0.1000000E+01   0.4347335E+00   0.480514069162225E+04   0.520000000000000E+04   0.434733517019510E+02 PG01
         49     1  2   0.000000000000000E+00   0.169088063502539E+05  1    1    9    6 6          1   0.2500000E+00   0.2500000E+00   0.1000000E+01   0.210000000000000E+04   0.650000000000000E+04   0.338548004150391E+03  1    5   13   13 4          2   0.2638491E+00   0.1000000E+01   0.9826837E+00   0.490553962107639E+04   0.520000000000000E+04   0.982683733977740E+02 PG01
         50     1  2   0.000000000000000E+00   0.159869112983672E+05  1    1    9    6 6          1   0.7500000E+00   0.2500000E+00   0.1000000E+01   0.230000000000000E+04   0.650000000000000E+04   0.338548004150391E+03  1    5   13   13 6          2   0.3469065E+00   0.9860173E+00   0.1000000E+01   0.493876259471462E+04   0.519440690634275E+04   0.100000000000000E+03 PG01
         51     1  2   0.000000000000000E+00   0.175504059531768E+05  1    1    9    6 6          1   0.2500000E+00   0.7500000E+00   0.1000000E+01   0.210000000000000E+04   0.670000000000000E+04   0.338548004150391E+03  1    5   13   13 4          2   0.3128812E+00   0.1000000E+01   0.9191807E+00   0.492515248430501E+04   0.520000000000000E+04   0.919180679327446E+02 PG01
         52     1  2   0.000000000000000E+00   0.166696364804299E+05  1    1    9    6 6          1   0.7500000E+00   0.7500000E+00   0.1000000E+01   0.230000000000000E+04   0.670000000000000E+04   0.338548004150391E+03  1    5   13   13 4          2   0.3910791E+00   0.1000000E+01   0.9451068E+00   0.495643162192155E+04   0.520000000000000E+04   0.945106797230155E+02 PG01
         53     1  2   0.000000000000000E+00   0.336055540163493E+05  1    1   10    2 6          1   0.2500000E+00   0.2500000E+00   0.1000000E+01   0.500000000000000E+03   0.610000000000000E+04   0.339060821533203E+03  1    5   13   13 1          2   0.0000000E+00   0.8165488E+00   0.3529028E+00   0.480000000000000E+04   0.512661951167288E+04   0.352902754243321E+02 PG01
         54     1  2   0.000000000000000E+00   0.291489729615086E+05  1    1   10    2 6          1   0.7500000E+00   0.2500000E+00   0.1000000E+01   0.700000000000000E+03   0.610000000000000E+04   0.339060821533203E+03  1    5   13   13 1          2   0.0000000E+00   0.8387419E+00   0.4696974E+00   0.480000000000000E+04   0.513549674886167E+04   0.469697386965003E+02 PG01
         55     1  2   0.000000000000000E+00   0.342496270437687E+05  1    1   10    2 6          1   0.2500000E+00   0.7500000E+00   0.1000000E+01   0.500000000000000E+03   0.630000000000000E+04   0.339060821533203E+03  1    5   13   13 1          2   0.0000000E+00   0.8713612E+00   0.3489860E+00   0.480000000000000E+04   0.514854449224849E+04   0.348986030357497E+02 PG01
         56     1  2   0.000000000000000E+00   0.297727479649310E+05  1    1   10    2 6          1   0.7500000E+00   0.7500000E+00   0.1000000E+01   0.700000000000000E+03   0.630000000000000E+04   0.339060821533203E+03  1    5   13   13 1          2   0.0000000E+00   0.8967022E+00   0.4641610E+00   0.480000000000000E+04   0.515868089981550E+04   0.464161029612426E+02 PG01
         57     1  2   0.000000000000000E+00   0.157715059980347E+05  1    1   10    6 6          1   0.2500000E+00   0.2500000E+00   0.1000000E+01   0.210000000000000E+04   0.610000000000000E+04   0.338542388916016E+03  1    5   13   13 6          2   0.1254274E+00   0.9282015E+00   0.1000000E+01   0.485017097100570E+04   0.517128058808241E+04   0.100000000000000E+03 PG01
         58     1  2   0.000000000000000E+00   0.148465867022545E+05  1    1   10    6 6          1   0.7500000E+00   0.2500000E+00   0.1000000E+01   0.230000000000000E+04   0.610000000000000E+04   0.338542388916016E+03  1    5   13   13 6          2   0.2079675E+00   0.8982508E+00   0.1000000E+01   0.488318701957634E+04   0.515930033550059E+04   0.100000000000000E+03 PG01
         59     1  2   0.000000000000000E+00   0.163099970555953E+05  1    1   10    6 6          1   0.2500000E+00   0.7500000E+00   0.1000000E+01   0.210000000000000E+04   0.630000000000000E+04   0.338542388916016E+03  1    5   13   13 6          2   0.1956201E+00   0.9715980E+00   0.1000000E+01   0.487824804399550E+04   0.518863919865142E+04   0.100000000000000E+03 PG01
         60     1  2   0.000000000000000E+00   0.153664640510061E+05  1    1   10    6 6          1   0.7500000E+00   0.7500000E+00   0.1000000E+01   0.230000000000000E+04   0.630000000000000E+04   0.338542388916016E+03  1    5   13   13 6          2   0.2747971E+00   0.9406305E+00   0.1000000E+01   0.490991885110010E+04   0.517625219764422E+04   0.100000000000000E+03 PG01
         61     1  2   0.000000000000000E+00   0.326132608856202E+05  1    1   11    2 6          1   0.2500000E+00   0.2500000E+00   0.1000000E+01   0.500000000000000E+03   0.570000000000000E+04   0.339058105468750E+03  1    5   13   13 1          2   0.0000000E+00   0.7038178E+00   0.3507399E+00   0.480000000000000E+04   0.508152712458509E+04   0.350739852484747E+02 PG01
         62     1  2   0.000000000000000E+00   0.282111664070838E+05  1    1   11    2 6          1   0.7500000E+00   0.2500000E+00   0.1000000E+01   0.700000000000000E+03   0.570000000000000E+04   0.339058105468750E+03  1    5   13   13 1          2   0.0000000E+00   0.7191040E+00   0.4630018E+00   0.480000000000000E+04   0.508764161373156E+04   0.463001756085773E+02 PG01
         63     1  2   0.000000000000000E+00   0.330880253326479E+05  1    1   11    2 6          1   0.2500000E+00   0.7500000E+00   0.1000000E+01   0.500000000000000E+03   0.590000000000000E+04   0.339058105468750E+03  1    5   13   13 1          2   0.0000000E+00   0.7609108E+00   0.3492460E+00   0.480000000000000E+04   0.510436430553990E+04   0.349245978459808E+02 PG01
         64     1  2   0.000000000000000E+00   0.286472304255301E+05  1    1   11    2 6          1   0.7500000E+00   0.7500000E+00   0.1000000E+01   0.700000000000000E+03   0.590000000000000E+04   0.339058105468750E+03  1    5   13   13 1          2   0.0000000E+00   0.7799522E+00   0.4660953E+00   0.480000000000000E+04   0.511198086317660E+04   0.466095275279549E+02 PG01
         65     1  2   0.000000000000000E+00   0.149213628725935E+05  1    1   11    6 6          1   0.2500000E+00   0.2500000E+00   0.1000000E+01   0.210000000000000E+04   0.570000000000000E+04   0.338537933349609E+03  1    5   13   13 6          2   0.8409187E-01   0.7713529E+00   0.1000000E+01   0.483363674839318E+04   0.510854117449815E+04   0.100000000000000E+03 PG01
         66     1  2   0.000000000000000E+00   0.140153903347327E+05  1    1   11    6 6          1   0.7500000E+00   0.2500000E+00   0.1000000E+01   0.230000000000000E+04   0.570000000000000E+04   0.338537933349609E+03  1    5   13   13 6          2   0.1511153E+00   0.7620868E+00   0.1000000E+01   0.486044611229662E+04   0.510483470188083E+04   0.100000000000000E+03 PG01
         67     1  2   0.000000000000000E+00   0.152988892103720E+05  1    1   11    6 6          1   0.2500000E+00   0.7500000E+00   0.1000000E+01   0.210000000000000E+04   0.590000000000000E+04   0.338537933349609E+03  1    5   13   13 6          2   0.9661655E-01   0.8548069E+00   0.1000000E+01   0.483864662195611E+04   0.514192277297445E+04   0.100000000000000E+03 PG01
         68     1  2   0.000000000000000E+00   0.143998521925521E+05  1    1   11    6 6          1   0.7500000E+00   0.7500000E+00   0.1000000E+01   0.230000000000000E+04   0.590000000000000E+04   0.338537933349609E+03  1    5   13   13 6          2   0.1571784E+00   0.8463504E+00   0.1000000E+01   0.486287137725088E+04   0.513854016870512E+04   0.100000000000000E+03 PG01
         69     2  2   0.000000000000000E+00   0.587970570350943E+05  1    1   16   11 6          1   0.2500000E+00   0.2500000E+00   0.1000000E+01   0.410000000000000E+04   0.370000000000000E+04   0.336940368652344E+03  1    1   14   25 6          1   0.8472512E+00   0.9423914E+00   0.1000000E+01   0.993890047909366E+04   0.477695657381671E+04   0.320139709472656E+03 PG02
         70     2  2   0.000000000000000E+00   0.144217611242214E+05  1    1   16   11 6          1   0.7500000E+00   0.2500000E+00   0.1000000E+01   0.430000000000000E+04   0.370000000000000E+04   0.336940368652344E+03  1    1   16   25 6          1   0.8090664E+00   0.3864462E+00   0.1000000E+01   0.992362654853107E+04   0.375457848511265E+04   0.320139770507812E+03 PG02
         71     2  2   0.000000000000000E+00   0.756913942947241E+05  1    1   16   11 6          1   0.2500000E+00   0.7500000E+00   0.1000000E+01   0.410000000000000E+04   0.390000000000000E+04   0.336940368652344E+03  1    1   13   25 6          1   0.8615996E+00   0.3493230E+00   0.1000000E+01   0.994463985941410E+04   0.493972919589839E+04   0.320139678955078E+03 PG02
         72     2  2   0.000000000000000E+00   0.144217611242214E+05  1    1   16   11 6          1   0.7500000E+00   0.7500000E+00   0.1000000E+01   0.430000000000000E+04   0.390000000000000E+04   0.336940368652344E+03  1    1   16   25 6          1   0.8090664E+00   0.8777578E+00   0.1000000E+01   0.992362654853107E+04   0.395110310239845E+04   0.320139770507812E+03 PG02
         73     2  2   0.000000000000000E+00   0.133467948227565E+05  1    1   16   12 6          1   0.2500000E+00   0.2500000E+00   0.1000000E+01   0.450000000000000E+04   0.370000000000000E+04   0.336466949462891E+03  1    1   16   25 6          1   0.7781907E+00   0.3733854E+00   0.1000000E+01   0.991127628159924E+04   0.374935415555456E+04   0.320139770507812E+03 PG02
         74     2  2   0.000000000000000E+00   0.123371489580941E+05  1    1   16   12 6          1   0.7500000E+00   0.2500000E+00   0.1000000E+01   0.470000000000000E+04   0.370000000000000E+04   0.336466949462891E+03  1    1   16   25 6          1   0.7473554E+00   0.3604850E+00   0.1000000E+01   0.989894214937352E+04   0.374419399180955E+04   0.320139770507812E+03 PG02
         75     2  2   0.000000000000000E+00   0.133467948227565E+05  1    1   16   12 6          1   0.2500000E+00   0.7500000E+00   0.1000000E+01   0.450000000000000E+04   0.390000000000000E+04   0.336466949462891E+03  1    1   16   25 6          1   0.7781907E+00   0.8653801E+00   0.1000000E+01   0.991127628159924E+04   0.394615203584476E+04   0.320139770507812E+03 PG02
         76     2  2   0.000000000000000E+00   0.123371489580941E+05  1    1   16   12 6          1   0.7500000E+00   0.7500000E+00   0.1000000E+01   0.470000000000000E+04   0.390000000000000E+04   0.336466949462891E+03  1    1   16   25 6          1   0.7473554E+00   0.8530882E+00   0.1000000E+01   0.989894214937352E+04   0.394123529039588E+04   0.320139770507812E+03 PG02
         77     2  2   0.000000000000000E+00   0.113895954082762E+05  1    1   16   13 6          1   0.2500000E+00   0.2500000E+00   0.1000000E+01   0.490000000000000E+04   0.370000000000000E+04   0.335933197021484E+03  1    1   16   25 6          1   0.7165575E+00   0.3481070E+00   0.1000000E+01   0.988662298378250E+04   0.373924278274092E+04   0.320139770507812E+03 PG02
         78     2  2   0.000000000000000E+00   0.104998852434488E+05  1    1   16   13 6          1   0.7500000E+00   0.2500000E+00   0.1000000E+01   0.510000000000000E+04   0.370000000000000E+04   0.335933197021484E+03  1    1   16   25 6          1   0.6857916E+00   0.3362267E+00   0.1000000E+01   0.987431663752116E+04   0.373449067609270E+04   0.320139770507812E+03 PG02