MODPATH_ENDPOINT_FILE 6 0                                                       
 1         16         16         16   0.209999984375000E+06
         0          0         16          0          0          0
         2
PG01            
PG02            
END HEADER
          1     1  2   0.000000000000000E+00   0.382234963522324E+05  1    1    5   10 6          1   0.9990000E+00   0.5000000E+00   0.1000000E+01   0.399960000000000E+04   0.820000000000000E+04   0.337410675048828E+03  1    1    7   25 6          1   0.8401057E+00   0.8125029E+00   0.1000000E+01   0.993604228322843E+04   0.752500117898817E+04   0.320139984130859E+03 PG01
          2     1  2   0.000000000000000E+00   0.381958578150558E+05  1    1    5   10 6          1   0.8530000E+00   0.8530000E+00   0.1000000E+01   0.394120000000000E+04   0.834120000000000E+04   0.337410675048828E+03  1    1    7   25 6          1   0.8460494E+00   0.8647184E+00   0.1000000E+01   0.993841974775142E+04   0.754588737751055E+04   0.320139984130859E+03 PG01
          3     1  2   0.000000000000000E+00   0.429400689873885E+05  1    1    5   10 6          1   0.5000000E+00   0.9990000E+00   0.1000000E+01   0.380000000000000E+04   0.839960000000000E+04   0.337410675048828E+03  1    1    7   25 6          1   0.8587377E+00   0.1422196E+00   0.1000000E+01   0.994349507018217E+04   0.725688782925970E+04   0.320139984130859E+03 PG01
          4     1  2   0.000000000000000E+00   0.472874220581858E+05  1    1    5   10 6          1   0.1470000E+00   0.8530000E+00   0.1000000E+01   0.365880000000000E+04   0.834120000000000E+04   0.337410675048828E+03  1    1    9   25 6          1   0.8690695E+00   0.9076783E+00   0.1000000E+01   0.994762779160716E+04   0.676307132151366E+04   0.320139831542969E+03 PG01
          5     1  2   0.000000000000000E+00   0.517759391422619E+05  1    1    5   10 6          1   0.1000000E-02   0.5000000E+00   0.1000000E+01   0.360040000000000E+04   0.820000000000000E+04   0.337410675048828E+03  1    1   10   25 6          1   0.8720596E+00   0.6608615E+00   0.1000000E+01   0.994882382270994E+04   0.626434458477208E+04   0.320139770507812E+03 PG01
          6     1  2   0.000000000000000E+00   0.523258527313259E+05  1    1    5   10 6          1   0.1470000E+00   0.1470000E+00   0.1000000E+01   0.365880000000000E+04   0.805880000000000E+04   0.337410675048828E+03  1    1   10   25 6          1   0.8686604E+00   0.2676760E+00   0.1000000E+01   0.994746417512896E+04   0.610707038304415E+04   0.320139770507812E+03 PG01
          7     1  2   0.000000000000000E+00   0.470754562741203E+05  1    1    5   10 6          1   0.5000000E+00   0.1000000E-02   0.1000000E+01   0.380000000000000E+04   0.800040000000000E+04   0.337410675048828E+03  1    1    9   25 6          1   0.8591388E+00   0.1639518E+00   0.1000000E+01   0.994365550070848E+04   0.646558071926845E+04   0.320139831542969E+03 PG01
          8     1  2   0.000000000000000E+00   0.396953358933698E+05  1    1    5   10 6          1   0.8530000E+00   0.1470000E+00   0.1000000E+01   0.394120000000000E+04   0.805880000000000E+04   0.337410675048828E+03  1    1    8   25 6          1   0.8464615E+00   0.7330170E+00   0.1000000E+01   0.993858461556534E+04   0.709320678323058E+04   0.320139923095703E+03 PG01
          9     2  2   0.100000000000000E+05   0.218144545463474E+05  1    1    7   12 6          1   0.9990000E+00   0.5000000E+00   0.1000000E+01   0.479960000000000E+04   0.740000000000000E+04   0.336506622314453E+03  1    1    7   25 6          1   0.7262538E+00   0.3919234E+00   0.1000000E+01   0.989050151353003E+04   0.735676935750814E+04   0.320139984130859E+03 PG01
         10     2  2   0.100000000000000E+05   0.220947630483703E+05  1    1    7   12 6          1   0.8530000E+00   0.8530000E+00   0.1000000E+01   0.474120000000000E+04   0.754120000000000E+04   0.336506622314453E+03  1    1    7   25 6          1   0.7350367E+00   0.7442148E+00   0.1000000E+01   0.989401466733764E+04   0.749768593333939E+04   0.320139984130859E+03 PG02
         11     2  2   0.100000000000000E+05   0.227908293899812E+05  1    1    7   12 6          1   0.5000000E+00   0.9990000E+00   0.1000000E+01   0.460000000000000E+04   0.759960000000000E+04   0.336506622314453E+03  1    1    7   25 6          1   0.7562608E+00   0.8830954E+00   0.1000000E+01   0.990250433175543E+04   0.755323817208380E+04   0.320139984130859E+03 PG02
         12     2  2   0.100000000000000E+05   0.235200533265892E+05  1    1    7   12 6          1   0.1470000E+00   0.8530000E+00   0.1000000E+01   0.445880000000000E+04   0.754120000000000E+04   0.336506622314453E+03  1    1    7   25 6          1   0.7774686E+00   0.7270623E+00   0.1000000E+01   0.991098744021413E+04   0.749082492328969E+04   0.320139984130859E+03 PG02
         13     2  2   0.100000000000000E+05   0.238301300671014E+05  1    1    7   12 6          1   0.1000000E-02   0.5000000E+00   0.1000000E+01   0.440040000000000E+04   0.740000000000000E+04   0.336506622314453E+03  1    1    7   25 6          1   0.7862351E+00   0.3668718E+00   0.1000000E+01   0.991449404393350E+04   0.734674873224603E+04   0.320139984130859E+03 PG02
         14     2  2   0.100000000000000E+05   0.235200533265892E+05  1    1    7   12 6          1   0.1470000E+00   0.1470000E+00   0.1000000E+01   0.445880000000000E+04   0.725880000000000E+04   0.336506622314453E+03  1    1    7   25 6          1   0.7774686E+00   0.1438072E-01   0.1000000E+01   0.991098744021413E+04   0.720575228853283E+04   0.320139984130859E+03 PG02
         15     2  2   0.100000000000000E+05   0.228036596447515E+05  1    1    7   12 6          1   0.5000000E+00   0.1000000E-02   0.1000000E+01   0.460000000000000E+04   0.720040000000000E+04   0.336506622314453E+03  1    1    8   25 6          1   0.7581355E+00   0.8767681E+00   0.1000000E+01   0.990325420194155E+04   0.715070724485598E+04   0.320139923095703E+03 PG02
         16     2  2   0.100000000000000E+05   0.220947630483703E+05  1    1    7   12 6          1   0.8530000E+00   0.1470000E+00   0.1000000E+01   0.474120000000000E+04   0.725880000000000E+04   0.336506622314453E+03  1    1    7   25 6          1   0.7350367E+00   0.3266051E-01   0.1000000E+01   0.989401466733764E+04   0.721306420395349E+04   0.320139984130859E+03 PG02
