MODPATH_TIMESERIES_FILE 6 0                                                     
 1   0.209999984375000E+06
END HEADER
    0    11   0.000000000000000E+00          1     1   0.500000000000000E+03   0.810000000000000E+04   0.339105285644531E+03  1    1    5    2   0.2500000E+00   0.2500000E+00   0.1000000E+01
    0    11   0.000000000000000E+00          2     1   0.700000000000000E+03   0.810000000000000E+04   0.339105285644531E+03  1    1    5    2   0.7500000E+00   0.2500000E+00   0.1000000E+01
    0    11   0.000000000000000E+00          3     1   0.500000000000000E+03   0.830000000000000E+04   0.339105285644531E+03  1    1    5    2   0.2500000E+00   0.7500000E+00   0.1000000E+01
    0    11   0.000000000000000E+00          4     1   0.700000000000000E+03   0.830000000000000E+04   0.339105285644531E+03  1    1    5    2   0.7500000E+00   0.7500000E+00   0.1000000E+01
    0    11   0.000000000000000E+00          5     1   0.210000000000000E+04   0.810000000000000E+04   0.338596710205078E+03  1    1    5    6   0.2500000E+00   0.2500000E+00   0.1000000E+01
    0    11   0.000000000000000E+00          6     1   0.230000000000000E+04   0.810000000000000E+04   0.338596710205078E+03  1    1    5    6   0.7500000E+00   0.2500000E+00   0.1000000E+01
    0    11   0.000000000000000E+00          7     1   0.210000000000000E+04   0.830000000000000E+04   0.338596710205078E+03  1    1    5    6   0.2500000E+00   0.7500000E+00   0.1000000E+01
    0    11   0.000000000000000E+00          8     1   0.230000000000000E+04   0.830000000000000E+04   0.338596710205078E+03  1    1    5    6   0.7500000E+00   0.7500000E+00   0.1000000E+01
    0    11   0.000000000000000E+00          9     1   0.500000000000000E+03   0.770000000000000E+04   0.339101165771484E+03  1    1    6    2   0.2500000E+00   0.2500000E+00   0.1000000E+01
    0    11   0.000000000000000E+00         10     1   0.700000000000000E+03   0.770000000000000E+04   0.339101165771484E+03  1    1    6    2   0.7500000E+00   0.2500000E+00   0.1000000E+01
    0    11   0.000000000000000E+00         11     1   0.500000000000000E+03   0.790000000000000E+04   0.339101165771484E+03  1    1    6    2   0.2500000E+00   0.7500000E+00   0.1000000E+01
    0    11   0.000000000000000E+00         12     1   0.700000000000000E+03   0.790000000000000E+04   0.339101165771484E+03  1    1    6    2   0.7500000E+00   0.7500000E+00   0.1000000E+01
    0    11   0.000000000000000E+00         13     1   0.900000000000000E+03   0.770000000000000E+04   0.339029510498047E+03  1    1    6    3   0.2500000E+00   0.2500000E+00   0.1000000E+01
    0    11   0.000000000000000E+00         14     1   0.110000000000000E+04   0.770000000000000E+04   0.339029510498047E+03  1    1    6    3   0.7500000E+00   0.2500000E+00   0.1000000E+01
    0    11   0.000000000000000E+00         15     1   0.900000000000000E+03   0.790000000000000E+04   0.339029510498047E+03  1    1    6    3   0.2500000E+00   0.7500000E+00   0.1000000E+01
    0    11   0.000000000000000E+00         16     1   0.110000000000000E+04   0.790000000000000E+04   0.339029510498047E+03  1    1    6    3   0.7500000E+00   0.7500000E+00   0.1000000E+01
    0    11   0.000000000000000E+00         17     1   0.170000000000000E+04   0.770000000000000E+04   0.338775421142578E+03  1    1    6    5   0.2500000E+00   0.2500000E+00   0.1000000E+01
    0    11   0.000000000000000E+00         18     1   0.190000000000000E+04   0.770000000000000E+04   0.338775421142578E+03  1    1    6    5   0.7500000E+00   0.2500000E+00   0.1000000E+01
    0    11   0.000000000000000E+00         19     1   0.170000000000000E+04   0.790000000000000E+04   0.338775421142578E+03  1    1    6    5   0.2500000E+00   0.7500000E+00   0.1000000E+01
    0    11   0.000000000000000E+00         20     1   0.190000000000000E+04   0.790000000000000E+04   0.338775421142578E+03  1    1    6    5   0.7500000E+00   0.7500000E+00   0.1000000E+01
    0    11   0.000000000000000E+00         21     1   0.210000000000000E+04   0.770000000000000E+04   0.338590728759766E+03  1    1    6    6   0.2500000E+00   0.2500000E+00   0.1000000E+01
    0    11   0.000000000000000E+00         22     1   0.230000000000000E+04   0.770000000000000E+04   0.338590728759766E+03  1    1    6    6   0.7500000E+00   0.2500000E+00   0.1000000E+01
    0    11   0.000000000000000E+00         23     1   0.210000000000000E+04   0.790000000000000E+04   0.338590728759766E+03  1    1    6    6   0.2500000E+00   0.7500000E+00   0.1000000E+01
    0    11   0.000000000000000E+00         24     1   0.230000000000000E+04   0.790000000000000E+04   0.338590728759766E+03  1    1    6    6   0.7500000E+00   0.7500000E+00   0.1000000E+01
    0    11   0.000000000000000E+00         25     1   0.500000000000000E+03   0.730000000000000E+04   0.339096801757812E+03  1    1    7    2   0.2500000E+00   0.2500000E+00   0.1000000E+01
    0    11   0.000000000000000E+00         26     1   0.700000000000000E+03   0.730000000000000E+04   0.339096801757812E+03  1    1    7    2   0.7500000E+00   0.2500000E+00   0.1000000E+01
    0    11   0.000000000000000E+00         27     1   0.500000000000000E+03   0.750000000000000E+04   0.339096801757812E+03  1    1    7    2   0.2500000E+00   0.7500000E+00   0.1000000E+01
    0    11   0.000000000000000E+00         28     1   0.700000000000000E+03   0.750000000000000E+04   0.339096801757812E+03  1    1    7    2   0.7500000E+00   0.7500000E+00   0.1000000E+01
    0    11   0.000000000000000E+00         29     1   0.130000000000000E+04   0.730000000000000E+04   0.338916107177734E+03  1    1    7    4   0.2500000E+00   0.2500000E+00   0.1000000E+01
    0    11   0.000000000000000E+00         30     1   0.150000000000000E+04   0.730000000000000E+04   0.338916107177734E+03  1    1    7    4   0.7500000E+00   0.2500000E+00   0.1000000E+01
    0    11   0.000000000000000E+00         31     1   0.130000000000000E+04   0.750000000000000E+04   0.338916107177734E+03  1    1    7    4   0.2500000E+00   0.7500000E+00   0.1000000E+01
    0    11   0.000000000000000E+00         32     1   0.150000000000000E+04   0.750000000000000E+04   0.338916107177734E+03  1    1    7    4   0.7500000E+00   0.7500000E+00   0.1000000E+01
    0    11   0.000000000000000E+00         33     1   0.210000000000000E+04   0.730000000000000E+04   0.338584228515625E+03  1    1    7    6   0.2500000E+00   0.2500000E+00   0.1000000E+01
    0    11   0.000000000000000E+00         34     1   0.230000000000000E+04   0.730000000000000E+04   0.338584228515625E+03  1    1    7    6   0.7500000E+00   0.2500000E+00   0.1000000E+01
    0    11   0.000000000000000E+00         35     1   0.210000000000000E+04   0.750000000000000E+04   0.338584228515625E+03  1    1    7    6   0.2500000E+00   0.7500000E+00   0.1000000E+01
    0    11   0.000000000000000E+00         36     1   0.230000000000000E+04   0.750000000000000E+04   0.338584228515625E+03  1    1    7    6   0.7500000E+00   0.7500000E+00   0.1000000E+01
    0    11   0.000000000000000E+00         37     1   0.500000000000000E+03   0.690000000000000E+04   0.339092407226562E+03  1    1    8    2   0.2500000E+00   0.2500000E+00   0.1000000E+01
    0    11   0.000000000000000E+00         38     1   0.700000000000000E+03   0.690000000000000E+04   0.339092407226562E+03  1    1    8    2   0.7500000E+00   0.2500000E+00   0.1000000E+01
    0    11   0.000000000000000E+00         39     1   0.500000000000000E+03   0.710000000000000E+04   0.339092407226562E+03  1    1    8    2   0.2500000E+00   0.7500000E+00   0.1000000E+01
    0    11   0.000000000000000E+00         40     1   0.700000000000000E+03   0.710000000000000E+04   0.339092407226562E+03  1    1    8    2   0.7500000E+00   0.7500000E+00   0.1000000E+01
    0    11   0.000000000000000E+00         41     1   0.210000000000000E+04   0.690000000000000E+04   0.338577575683594E+03  1    1    8    6   0.2500000E+00   0.2500000E+00   0.1000000E+01
    0    11   0.000000000000000E+00         42     1   0.230000000000000E+04   0.690000000000000E+04   0.338577575683594E+03  1    1    8    6   0.7500000E+00   0.2500000E+00   0.1000000E+01
    0    11   0.000000000000000E+00         43     1   0.210000000000000E+04   0.710000000000000E+04   0.338577575683594E+03  1    1    8    6   0.2500000E+00   0.7500000E+00   0.1000000E+01
    0    11   0.000000000000000E+00         44     1   0.230000000000000E+04   0.710000000000000E+04   0.338577575683594E+03  1    1    8    6   0.7500000E+00   0.7500000E+00   0.1000000E+01
    0    11   0.000000000000000E+00         45     1   0.500000000000000E+03   0.650000000000000E+04   0.339088348388672E+03  1    1    9    2   0.2500000E+00   0.2500000E+00   0.1000000E+01
    0    11   0.000000000000000E+00         46     1   0.700000000000000E+03   0.650000000000000E+04   0.339088348388672E+03  1    1    9    2   0.7500000E+00   0.2500000E+00   0.1000000E+01
    0    11   0.000000000000000E+00         47     1   0.500000000000000E+03   0.670000000000000E+04   0.339088348388672E+03  1    1    9    2   0.2500000E+00   0.7500000E+00   0.1000000E+01
    0    11   0.000000000000000E+00         48     1   0.700000000000000E+03   0.670000000000000E+04   0.339088348388672E+03  1    1    9    2   0.7500000E+00   0.7500000E+00   0.1000000E+01
    0    11   0.000000000000000E+00         49     1   0.210000000000000E+04   0.650000000000000E+04   0.338571197509766E+03  1    1    9    6   0.2500000E+00   0.2500000E+00   0.1000000E+01
    0    11   0.000000000000000E+00         50     1   0.230000000000000E+04   0.650000000000000E+04   0.338571197509766E+03  1    1    9    6   0.7500000E+00   0.2500000E+00   0.1000000E+01
    0    11   0.000000000000000E+00         51     1   0.210000000000000E+04   0.670000000000000E+04   0.338571197509766E+03  1    1    9    6   0.2500000E+00   0.7500000E+00   0.1000000E+01
    0    11   0.000000000000000E+00         52     1   0.230000000000000E+04   0.670000000000000E+04   0.338571197509766E+03  1    1    9    6   0.7500000E+00   0.7500000E+00   0.1000000E+01
    0    11   0.000000000000000E+00         53     1   0.500000000000000E+03   0.610000000000000E+04   0.339084808349609E+03  1    1   10    2   0.2500000E+00   0.2500000E+00   0.1000000E+01
    0    11   0.000000000000000E+00         54     1   0.700000000000000E+03   0.610000000000000E+04   0.339084808349609E+03  1    1   10    2   0.7500000E+00   0.2500000E+00   0.1000000E+01
    0    11   0.000000000000000E+00         55     1   0.500000000000000E+03   0.630000000000000E+04   0.339084808349609E+03  1    1   10    2   0.2500000E+00   0.7500000E+00   0.1000000E+01
    0    11   0.000000000000000E+00         56     1   0.700000000000000E+03   0.630000000000000E+04   0.339084808349609E+03  1    1   10    2   0.7500000E+00   0.7500000E+00   0.1000000E+01
    0    11   0.000000000000000E+00         57     1   0.210000000000000E+04   0.610000000000000E+04   0.338565582275391E+03  1    1   10    6   0.2500000E+00   0.2500000E+00   0.1000000E+01
    0    11   0.000000000000000E+00         58     1   0.230000000000000E+04   0.610000000000000E+04   0.338565582275391E+03  1    1   10    6   0.7500000E+00   0.2500000E+00   0.1000000E+01
    0    11   0.000000000000000E+00         59     1   0.210000000000000E+04   0.630000000000000E+04   0.338565582275391E+03  1    1   10    6   0.2500000E+00   0.7500000E+00   0.1000000E+01
    0    11   0.000000000000000E+00         60     1   0.230000000000000E+04   0.630000000000000E+04   0.338565582275391E+03  1    1   10    6   0.7500000E+00   0.7500000E+00   0.1000000E+01
    0    11   0.000000000000000E+00         61     1   0.500000000000000E+03   0.570000000000000E+04   0.339082092285156E+03  1    1   11    2   0.2500000E+00   0.2500000E+00   0.1000000E+01
    0    11   0.000000000000000E+00         62     1   0.700000000000000E+03   0.570000000000000E+04   0.339082092285156E+03  1    1   11    2   0.7500000E+00   0.2500000E+00   0.1000000E+01
    0    11   0.000000000000000E+00         63     1   0.500000000000000E+03   0.590000000000000E+04   0.339082092285156E+03  1    1   11    2   0.2500000E+00   0.7500000E+00   0.1000000E+01
    0    11   0.000000000000000E+00         64     1   0.700000000000000E+03   0.590000000000000E+04   0.339082092285156E+03  1    1   11    2   0.7500000E+00   0.7500000E+00   0.1000000E+01
    0    11   0.000000000000000E+00         65     1   0.210000000000000E+04   0.570000000000000E+04   0.338561157226562E+03  1    1   11    6   0.2500000E+00   0.2500000E+00   0.1000000E+01
    0    11   0.000000000000000E+00         66     1   0.230000000000000E+04   0.570000000000000E+04   0.338561157226562E+03  1    1   11    6   0.7500000E+00   0.2500000E+00   0.1000000E+01
    0    11   0.000000000000000E+00         67     1   0.210000000000000E+04   0.590000000000000E+04   0.338561157226562E+03  1    1   11    6   0.2500000E+00   0.7500000E+00   0.1000000E+01
    0    11   0.000000000000000E+00         68     1   0.230000000000000E+04   0.590000000000000E+04   0.338561157226562E+03  1    1   11    6   0.7500000E+00   0.7500000E+00   0.1000000E+01
    0    11   0.000000000000000E+00         69     2   0.410000000000000E+04   0.370000000000000E+04   0.336961242675781E+03  1    1   16   11   0.2500000E+00   0.2500000E+00   0.1000000E+01
    0    11   0.000000000000000E+00         70     2   0.430000000000000E+04   0.370000000000000E+04   0.336961242675781E+03  1    1   16   11   0.7500000E+00   0.2500000E+00   0.1000000E+01
    0    11   0.000000000000000E+00         71     2   0.410000000000000E+04   0.390000000000000E+04   0.336961242675781E+03  1    1   16   11   0.2500000E+00   0.7500000E+00   0.1000000E+01
    0    11   0.000000000000000E+00         72     2   0.430000000000000E+04   0.390000000000000E+04   0.336961242675781E+03  1    1   16   11   0.7500000E+00   0.7500000E+00   0.1000000E+01
    0    11   0.000000000000000E+00         73     2   0.450000000000000E+04   0.370000000000000E+04   0.336487152099609E+03  1    1   16   12   0.2500000E+00   0.2500000E+00   0.1000000E+01
    0    11   0.000000000000000E+00         74     2   0.470000000000000E+04   0.370000000000000E+04   0.336487152099609E+03  1    1   16   12   0.7500000E+00   0.2500000E+00   0.1000000E+01
    0    11   0.000000000000000E+00         75     2   0.450000000000000E+04   0.390000000000000E+04   0.336487152099609E+03  1    1   16   12   0.2500000E+00   0.7500000E+00   0.1000000E+01
    0    11   0.000000000000000E+00         76     2   0.470000000000000E+04   0.390000000000000E+04   0.336487152099609E+03  1    1   16   12   0.7500000E+00   0.7500000E+00   0.1000000E+01
    0    11   0.000000000000000E+00         77     2   0.490000000000000E+04   0.370000000000000E+04   0.335952636718750E+03  1    1   16   13   0.2500000E+00   0.2500000E+00   0.1000000E+01
    0    11   0.000000000000000E+00         78     2   0.510000000000000E+04   0.370000000000000E+04   0.335952636718750E+03  1    1   16   13   0.7500000E+00   0.2500000E+00   0.1000000E+01
    0    11   0.000000000000000E+00         79     2   0.490000000000000E+04   0.390000000000000E+04   0.335952636718750E+03  1    1   16   13   0.2500000E+00   0.7500000E+00   0.1000000E+01
    0    11   0.000000000000000E+00         80     2   0.510000000000000E+04   0.390000000000000E+04   0.335952636718750E+03  1    1   16   13   0.7500000E+00   0.7500000E+00   0.1000000E+01
    0    11   0.000000000000000E+00         81     2   0.410000000000000E+04   0.330000000000000E+04   0.336973327636719E+03  1    1   17   11   0.2500000E+00   0.2500000E+00   0.1000000E+01
    0    11   0.000000000000000E+00         82     2   0.430000000000000E+04   0.330000000000000E+04   0.336973327636719E+03  1    1   17   11   0.7500000E+00   0.2500000E+00   0.1000000E+01
    0    11   0.000000000000000E+00         83     2   0.410000000000000E+04   0.350000000000000E+04   0.336973327636719E+03  1    1   17   11   0.2500000E+00   0.7500000E+00   0.1000000E+01
    0    11   0.000000000000000E+00         84     2   0.430000000000000E+04   0.350000000000000E+04   0.336973327636719E+03  1    1   17   11   0.7500000E+00   0.7500000E+00   0.1000000E+01
    0    11   0.000000000000000E+00         85     2   0.530000000000000E+04   0.330000000000000E+04   0.335364715576172E+03  1    1   17   14   0.2500000E+00   0.2500000E+00   0.1000000E+01
    0    11   0.000000000000000E+00         86     2   0.550000000000000E+04   0.330000000000000E+04   0.335364715576172E+03  1    1   17   14   0.7500000E+00   0.2500000E+00   0.1000000E+01
    0    11   0.000000000000000E+00         87     2   0.530000000000000E+04   0.350000000000000E+04   0.335364715576172E+03  1    1   17   14   0.2500000E+00   0.7500000E+00   0.1000000E+01
    0    11   0.000000000000000E+00         88     2   0.550000000000000E+04   0.350000000000000E+04   0.335364715576172E+03  1    1   17   14   0.7500000E+00   0.7500000E+00   0.1000000E+01
    0    11   0.000000000000000E+00         89     2   0.410000000000000E+04   0.290000000000000E+04   0.336985839843750E+03  1    1   18   11   0.2500000E+00   0.2500000E+00   0.1000000E+01
    0    11   0.000000000000000E+00         90     2   0.430000000000000E+04   0.290000000000000E+04   0.336985839843750E+03  1    1   18   11   0.7500000E+00   0.2500000E+00   0.1000000E+01
    0    11   0.000000000000000E+00         91     2   0.410000000000000E+04   0.310000000000000E+04   0.336985839843750E+03  1    1   18   11   0.2500000E+00   0.7500000E+00   0.1000000E+01
    0    11   0.000000000000000E+00         92     2   0.430000000000000E+04   0.310000000000000E+04   0.336985839843750E+03  1    1   18   11   0.7500000E+00   0.7500000E+00   0.1000000E+01
    0    11   0.000000000000000E+00         93     2   0.530000000000000E+04   0.290000000000000E+04   0.335378234863281E+03  1    1   18   14   0.2500000E+00   0.2500000E+00   0.1000000E+01
    0    11   0.000000000000000E+00         94     2   0.550000000000000E+04   0.290000000000000E+04   0.335378234863281E+03  1    1   18   14   0.7500000E+00   0.2500000E+00   0.1000000E+01
    0    11   0.000000000000000E+00         95     2   0.530000000000000E+04   0.310000000000000E+04   0.335378234863281E+03  1    1   18   14   0.2500000E+00   0.7500000E+00   0.1000000E+01
    0    11   0.000000000000000E+00         96     2   0.550000000000000E+04   0.310000000000000E+04   0.335378234863281E+03  1    1   18   14   0.7500000E+00   0.7500000E+00   0.1000000E+01
    0    11   0.000000000000000E+00         97     2   0.410000000000000E+04   0.250000000000000E+04   0.336997985839844E+03  1    1   19   11   0.2500000E+00   0.2500000E+00   0.1000000E+01
    0    11   0.000000000000000E+00         98     2   0.430000000000000E+04   0.250000000000000E+04   0.336997985839844E+03  1    1   19   11   0.7500000E+00   0.2500000E+00   0.1000000E+01
    0    11   0.000000000000000E+00         99     2   0.410000000000000E+04   0.270000000000000E+04   0.336997985839844E+03  1    1   19   11   0.2500000E+00   0.7500000E+00   0.1000000E+01
    0    11   0.000000000000000E+00        100     2   0.430000000000000E+04   0.270000000000000E+04   0.336997985839844E+03  1    1   19   11   0.7500000E+00   0.7500000E+00   0.1000000E+01
    0    11   0.000000000000000E+00        101     2   0.450000000000000E+04   0.250000000000000E+04   0.336526794433594E+03  1    1   19   12   0.2500000E+00   0.2500000E+00   0.1000000E+01
    0    11   0.000000000000000E+00        102     2   0.470000000000000E+04   0.250000000000000E+04   0.336526794433594E+03  1    1   19   12   0.7500000E+00   0.2500000E+00   0.1000000E+01
    0    11   0.000000000000000E+00        103     2   0.450000000000000E+04   0.270000000000000E+04   0.336526794433594E+03  1    1   19   12   0.2500000E+00   0.7500000E+00   0.1000000E+01
    0    11   0.000000000000000E+00        104     2   0.470000000000000E+04   0.270000000000000E+04   0.336526794433594E+03  1    1   19   12   0.7500000E+00   0.7500000E+00   0.1000000E+01
    0    11   0.000000000000000E+00        105     2   0.490000000000000E+04   0.250000000000000E+04   0.335993438720703E+03  1    1   19   13   0.2500000E+00   0.2500000E+00   0.1000000E+01
    0    11   0.000000000000000E+00        106     2   0.510000000000000E+04   0.250000000000000E+04   0.335993438720703E+03  1    1   19   13   0.7500000E+00   0.2500000E+00   0.1000000E+01
    0    11   0.000000000000000E+00        107     2   0.490000000000000E+04   0.270000000000000E+04   0.335993438720703E+03  1    1   19   13   0.2500000E+00   0.7500000E+00   0.1000000E+01
    0    11   0.000000000000000E+00        108     2   0.510000000000000E+04   0.270000000000000E+04   0.335993438720703E+03  1    1   19   13   0.7500000E+00   0.7500000E+00   0.1000000E+01
    0    11   0.000000000000000E+00        109     2   0.410000000000000E+04   0.210000000000000E+04   0.337009185791016E+03  1    1   20   11   0.2500000E+00   0.2500000E+00   0.1000000E+01
    0    11   0.000000000000000E+00        110     2   0.430000000000000E+04   0.210000000000000E+04   0.337009185791016E+03  1    1   20   11   0.7500000E+00   0.2500000E+00   0.1000000E+01
    0    11   0.000000000000000E+00        111     2   0.410000000000000E+04   0.230000000000000E+04   0.337009185791016E+03  1    1   20   11   0.2500000E+00   0.7500000E+00   0.1000000E+01
    0    11   0.000000000000000E+00        112     2   0.430000000000000E+04   0.230000000000000E+04   0.337009185791016E+03  1    1   20   11   0.7500000E+00   0.7500000E+00   0.1000000E+01
    0    11   0.000000000000000E+00        113     2   0.410000000000000E+04   0.170000000000000E+04   0.337019073486328E+03  1    1   21   11   0.2500000E+00   0.2500000E+00   0.1000000E+01
    0    11   0.000000000000000E+00        114     2   0.430000000000000E+04   0.170000000000000E+04   0.337019073486328E+03  1    1   21   11   0.7500000E+00   0.2500000E+00   0.1000000E+01
    0    11   0.000000000000000E+00        115     2   0.410000000000000E+04   0.190000000000000E+04   0.337019073486328E+03  1    1   21   11   0.2500000E+00   0.7500000E+00   0.1000000E+01
    0    11   0.000000000000000E+00        116     2   0.430000000000000E+04   0.190000000000000E+04   0.337019073486328E+03  1    1   21   11   0.7500000E+00   0.7500000E+00   0.1000000E+01
    0    11   0.000000000000000E+00        117     2   0.410000000000000E+04   0.130000000000000E+04   0.337027282714844E+03  1    1   22   11   0.2500000E+00   0.2500000E+00   0.1000000E+01
    0    11   0.000000000000000E+00        118     2   0.430000000000000E+04   0.130000000000000E+04   0.337027282714844E+03  1    1   22   11   0.7500000E+00   0.2500000E+00   0.1000000E+01
    0    11   0.000000000000000E+00        119     2   0.410000000000000E+04   0.150000000000000E+04   0.337027282714844E+03  1    1   22   11   0.2500000E+00   0.7500000E+00   0.1000000E+01
    0    11   0.000000000000000E+00        120     2   0.430000000000000E+04   0.150000000000000E+04   0.337027282714844E+03  1    1   22   11   0.7500000E+00   0.7500000E+00   0.1000000E+01
    0    12   0.000000000000000E+00          1     1   0.500000000000000E+03   0.810000000000000E+04   0.339081298828125E+03  1    1    5    2   0.2500000E+00   0.2500000E+00   0.1000000E+01
    0    12   0.000000000000000E+00          2     1   0.700000000000000E+03   0.810000000000000E+04   0.339081298828125E+03  1    1    5    2   0.7500000E+00   0.2500000E+00   0.1000000E+01
    0    12   0.000000000000000E+00          3     1   0.500000000000000E+03   0.830000000000000E+04   0.339081298828125E+03  1    1    5    2   0.2500000E+00   0.7500000E+00   0.1000000E+01
    0    12   0.000000000000000E+00          4     1   0.700000000000000E+03   0.830000000000000E+04   0.339081298828125E+03  1    1    5    2   0.7500000E+00   0.7500000E+00   0.1000000E+01
    0    12   0.000000000000000E+00          5     1   0.210000000000000E+04   0.810000000000000E+04   0.338573516845703E+03  1    1    5    6   0.2500000E+00   0.2500000E+00   0.1000000E+01
    0    12   0.000000000000000E+00          6     1   0.230000000000000E+04   0.810000000000000E+04   0.338573516845703E+03  1    1    5    6   0.7500000E+00   0.2500000E+00   0.1000000E+01
    0    12   0.000000000000000E+00          7     1   0.210000000000000E+04   0.830000000000000E+04   0.338573516845703E+03  1    1    5    6   0.2500000E+00   0.7500000E+00   0.1000000E+01
    0    12   0.000000000000000E+00          8     1   0.230000000000000E+04   0.830000000000000E+04   0.338573516845703E+03  1    1    5    6   0.7500000E+00   0.7500000E+00   0.1000000E+01
    0    12   0.000000000000000E+00          9     1   0.500000000000000E+03   0.770000000000000E+04   0.339077178955078E+03  1    1    6    2   0.2500000E+00   0.2500000E+00   0.1000000E+01
    0    12   0.000000000000000E+00         10     1   0.700000000000000E+03   0.770000000000000E+04   0.339077178955078E+03  1    1    6    2   0.7500000E+00   0.2500000E+00   0.1000000E+01
    0    12   0.000000000000000E+00         11     1   0.500000000000000E+03   0.790000000000000E+04   0.339077178955078E+03  1    1    6    2   0.2500000E+00   0.7500000E+00   0.1000000E+01
    0    12   0.000000000000000E+00         12     1   0.700000000000000E+03   0.790000000000000E+04   0.339077178955078E+03  1    1    6    2   0.7500000E+00   0.7500000E+00   0.1000000E+01
    0    12   0.000000000000000E+00         13     1   0.900000000000000E+03   0.770000000000000E+04   0.339005615234375E+03  1    1    6    3   0.2500000E+00   0.2500000E+00   0.1000000E+01
    0    12   0.000000000000000E+00         14     1   0.110000000000000E+04   0.770000000000000E+04   0.339005615234375E+03  1    1    6    3   0.7500000E+00   0.2500000E+00   0.1000000E+01
    0    12   0.000000000000000E+00         15     1   0.900000000000000E+03   0.790000000000000E+04   0.339005615234375E+03  1    1    6    3   0.2500000E+00   0.7500000E+00   0.1000000E+01
    0    12   0.000000000000000E+00         16     1   0.110000000000000E+04   0.790000000000000E+04   0.339005615234375E+03  1    1    6    3   0.7500000E+00   0.7500000E+00   0.1000000E+01
    0    12   0.000000000000000E+00         17     1   0.170000000000000E+04   0.770000000000000E+04   0.338751922607422E+03  1    1    6    5   0.2500000E+00   0.2500000E+00   0.1000000E+01
    0    12   0.000000000000000E+00         18     1   0.190000000000000E+04   0.770000000000000E+04   0.338751922607422E+03  1    1    6    5   0.7500000E+00   0.2500000E+00   0.1000000E+01
    0    12   0.000000000000000E+00         19     1   0.170000000000000E+04   0.790000000000000E+04   0.338751922607422E+03  1    1    6    5   0.2500000E+00   0.7500000E+00   0.1000000E+01
    0    12   0.000000000000000E+00         20     1   0.190000000000000E+04   0.790000000000000E+04   0.338751922607422E+03  1    1    6    5   0.7500000E+00   0.7500000E+00   0.1000000E+01
    0    12   0.000000000000000E+00         21     1   0.210000000000000E+04   0.770000000000000E+04   0.338567504882812E+03  1    1    6    6   0.2500000E+00   0.2500000E+00   0.1000000E+01
    0    12   0.000000000000000E+00         22     1   0.230000000000000E+04   0.770000000000000E+04   0.338567504882812E+03  1    1    6    6   0.7500000E+00   0.2500000E+00   0.1000000E+01
    0    12   0.000000000000000E+00         23     1   0.210000000000000E+04   0.790000000000000E+04   0.338567504882812E+03  1    1    6    6   0.2500000E+00   0.7500000E+00   0.1000000E+01
    0    12   0.000000000000000E+00         24     1   0.230000000000000E+04   0.790000000000000E+04   0.338567504882812E+03  1    1    6    6   0.7500000E+00   0.7500000E+00   0.1000000E+01
    0    12   0.000000000000000E+00         25     1   0.500000000000000E+03   0.730000000000000E+04   0.339072814941406E+03  1    1    7    2   0.2500000E+00   0.2500000E+00   0.1000000E+01
    0    12   0.000000000000000E+00         26     1   0.700000000000000E+03   0.730000000000000E+04   0.339072814941406E+03  1    1    7    2   0.7500000E+00   0.2500000E+00   0.1000000E+01
    0    12   0.000000000000000E+00         27     1   0.500000000000000E+03   0.750000000000000E+04   0.339072814941406E+03  1    1    7    2   0.2500000E+00   0.7500000E+00   0.1000000E+01
    0    12   0.000000000000000E+00         28     1   0.700000000000000E+03   0.750000000000000E+04   0.339072814941406E+03  1    1    7    2   0.7500000E+00   0.7500000E+00   0.1000000E+01
    0    12   0.000000000000000E+00         29     1   0.130000000000000E+04   0.730000000000000E+04   0.338892395019531E+03  1    1    7    4   0.2500000E+00   0.2500000E+00   0.1000000E+01
    0    12   0.000000000000000E+00         30     1   0.150000000000000E+04   0.730000000000000E+04   0.338892395019531E+03  1    1    7    4   0.7500000E+00   0.2500000E+00   0.1000000E+01
    0    12   0.000000000000000E+00         31     1   0.130000000000000E+04   0.750000000000000E+04   0.338892395019531E+03  1    1    7    4   0.2500000E+00   0.7500000E+00   0.1000000E+01
    0    12   0.000000000000000E+00         32     1   0.150000000000000E+04   0.750000000000000E+04   0.338892395019531E+03  1    1    7    4   0.7500000E+00   0.7500000E+00   0.1000000E+01
    0    12   0.000000000000000E+00         33     1   0.210000000000000E+04   0.730000000000000E+04   0.338561004638672E+03  1    1    7    6   0.2500000E+00   0.2500000E+00   0.1000000E+01
    0    12   0.000000000000000E+00         34     1   0.230000000000000E+04   0.730000000000000E+04   0.338561004638672E+03  1    1    7    6   0.7500000E+00   0.2500000E+00   0.1000000E+01
    0    12   0.000000000000000E+00         35     1   0.210000000000000E+04   0.750000000000000E+04   0.338561004638672E+03  1    1    7    6   0.2500000E+00   0.7500000E+00   0.1000000E+01