MODPATH_ENDPOINT_FILE 6 0                                                       
 1        225        225        225   0.209999984375000E+06
         0          0        225          0          0          0
         1
PG00            
END HEADER
          1     1  2   0.000000000000000E+00   0.488893664434106E+05  1    1    3    5 6          1   0.1000000E+00   0.1000000E+00   0.1000000E+01   0.164000000000000E+04   0.884000000000000E+04   0.338765563964844E+03  1    5   13   13 2          2   0.1000000E+01   0.6998514E+00   0.2219026E+00   0.520000000000000E+04   0.507994056203489E+04   0.221902554075765E+02 PG00
          2     1  2   0.000000000000000E+00   0.491370362835421E+05  1    1    3    5 6          1   0.3000000E+00   0.1000000E+00   0.1000000E+01   0.172000000000000E+04   0.884000000000000E+04   0.338765563964844E+03  1    5   13   13 2          2   0.1000000E+01   0.6728661E+00   0.2237772E+00   0.520000000000000E+04   0.506914645567916E+04   0.223777219659392E+02 PG00
          3     1  2   0.000000000000000E+00   0.506297464044396E+05  1    1    3    5 6          1   0.5000000E+00   0.1000000E+00   0.1000000E+01   0.180000000000000E+04   0.884000000000000E+04   0.338765563964844E+03  1    5   13   13 2          2   0.1000000E+01   0.6418390E+00   0.2206271E+00   0.520000000000000E+04   0.505673561739601E+04   0.220627127284592E+02 PG00
          4     1  2   0.000000000000000E+00   0.542788227636773E+05  1    1    3    5 6          1   0.7000000E+00   0.1000000E+00   0.1000000E+01   0.188000000000000E+04   0.884000000000000E+04   0.338765563964844E+03  1    5   13   13 2          2   0.1000000E+01   0.6087091E+00   0.2113680E+00   0.520000000000000E+04   0.504348362147042E+04   0.211368014133486E+02 PG00
          5     1  2   0.000000000000000E+00   0.572079812470020E+05  1    1    3    5 6          1   0.9000000E+00   0.1000000E+00   0.1000000E+01   0.196000000000000E+04   0.884000000000000E+04   0.338765563964844E+03  1    5   13   13 2          2   0.1000000E+01   0.5741049E+00   0.2024877E+00   0.520000000000000E+04   0.502964194385469E+04   0.202487721169184E+02 PG00
          6     1  2   0.000000000000000E+00   0.579056735725612E+05  1    1    3    5 6          1   0.1000000E+00   0.3000000E+00   0.1000000E+01   0.164000000000000E+04   0.892000000000000E+04   0.338765563964844E+03  1    5   13   13 2          2   0.1000000E+01   0.6029633E+00   0.1741182E+00   0.520000000000000E+04   0.504118533274454E+04   0.174118195296401E+02 PG00
          7     1  2   0.000000000000000E+00   0.606396996848980E+05  1    1    3    5 6          1   0.3000000E+00   0.3000000E+00   0.1000000E+01   0.172000000000000E+04   0.892000000000000E+04   0.338765563964844E+03  1    5   13   13 2          2   0.1000000E+01   0.5702684E+00   0.1684336E+00   0.520000000000000E+04   0.502810734685324E+04   0.168433550587572E+02 PG00
          8     1  2   0.000000000000000E+00   0.710626782749897E+05  1    1    3    5 6          1   0.5000000E+00   0.3000000E+00   0.1000000E+01   0.180000000000000E+04   0.892000000000000E+04   0.338765563964844E+03  1    5   13   13 2          2   0.1000000E+01   0.5300232E+00   0.1508273E+00   0.520000000000000E+04   0.501200928337875E+04   0.150827267482158E+02 PG00
          9     1  2   0.000000000000000E+00   0.121828583820512E+06  1    1    3    5 6          1   0.7000000E+00   0.3000000E+00   0.1000000E+01   0.188000000000000E+04   0.892000000000000E+04   0.338765563964844E+03  1    1   13   25 6          1   0.9502442E+00   0.6612236E+00   0.1000000E+01   0.998009768348349E+04   0.506448944923396E+04   0.320139678955078E+03 PG00
         10     1  2   0.000000000000000E+00   0.105566311523721E+06  1    1    3    5 6          1   0.9000000E+00   0.3000000E+00   0.1000000E+01   0.196000000000000E+04   0.892000000000000E+04   0.338765563964844E+03  1    1   13   25 6          1   0.9426817E+00   0.9782582E+00   0.1000000E+01   0.997707268874714E+04   0.519130326443212E+04   0.320139678955078E+03 PG00
         11     1  2   0.000000000000000E+00   0.118935410788899E+06  1    1    3    5 6          1   0.1000000E+00   0.5000000E+00   0.1000000E+01   0.164000000000000E+04   0.900000000000000E+04   0.338765563964844E+03  1    1   13   25 6          1   0.9542747E+00   0.7838700E+00   0.1000000E+01   0.998170987568058E+04   0.511354800028526E+04   0.320139678955078E+03 PG00
         12     1  2   0.000000000000000E+00   0.108151579256475E+06  1    1    3    5 6          1   0.3000000E+00   0.5000000E+00   0.1000000E+01   0.172000000000000E+04   0.900000000000000E+04   0.338765563964844E+03  1    1   12   25 6          1   0.9493513E+00   0.6161164E-01   0.1000000E+01   0.997974050151115E+04   0.522464465608277E+04   0.320139709472656E+03 PG00
         13     1  2   0.000000000000000E+00   0.100985531878953E+06  1    1    3    5 6          1   0.5000000E+00   0.5000000E+00   0.1000000E+01   0.180000000000000E+04   0.900000000000000E+04   0.338765563964844E+03  1    1   12   25 6          1   0.9453868E+00   0.3529598E+00   0.1000000E+01   0.997815472358848E+04   0.534118392645695E+04   0.320139709472656E+03 PG00
         14     1  2   0.000000000000000E+00   0.956835494950932E+05  1    1    3    5 6          1   0.7000000E+00   0.5000000E+00   0.1000000E+01   0.188000000000000E+04   0.900000000000000E+04   0.338765563964844E+03  1    1   12   25 6          1   0.9424240E+00   0.6354838E+00   0.1000000E+01   0.997696960988868E+04   0.545419351028592E+04   0.320139709472656E+03 PG00
         15     1  2   0.000000000000000E+00   0.917024447783957E+05  1    1    3    5 6          1   0.9000000E+00   0.5000000E+00   0.1000000E+01   0.196000000000000E+04   0.900000000000000E+04   0.338765563964844E+03  1    1   12   25 6          1   0.9402481E+00   0.9085099E+00   0.1000000E+01   0.997609922626437E+04   0.556340397793414E+04   0.320139709472656E+03 PG00
         16     1  2   0.000000000000000E+00   0.991266097277080E+05  1    1    3    5 6          1   0.1000000E+00   0.7000000E+00   0.1000000E+01   0.164000000000000E+04   0.908000000000000E+04   0.338765563964844E+03  1    1   12   25 6          1   0.9503775E+00   0.7698924E+00   0.1000000E+01   0.998015101186062E+04   0.550795695817355E+04   0.320139709472656E+03 PG00
         17     1  2   0.000000000000000E+00   0.952526209959583E+05  1    1    3    5 6          1   0.3000000E+00   0.7000000E+00   0.1000000E+01   0.172000000000000E+04   0.908000000000000E+04   0.338765563964844E+03  1    1   11   25 6          1   0.9483563E+00   0.1591121E-01   0.1000000E+01   0.997934252296344E+04   0.560636448447809E+04   0.320139739990234E+03 PG00
         18     1  2   0.000000000000000E+00   0.917146123067765E+05  1    1    3    5 6          1   0.5000000E+00   0.7000000E+00   0.1000000E+01   0.180000000000000E+04   0.908000000000000E+04   0.338765563964844E+03  1    1   11   25 6          1   0.9458436E+00   0.2817820E+00   0.1000000E+01   0.997833743779160E+04   0.571271281625912E+04   0.320139739990234E+03 PG00
         19     1  2   0.000000000000000E+00   0.884676155417562E+05  1    1    3    5 6          1   0.7000000E+00   0.7000000E+00   0.1000000E+01   0.188000000000000E+04   0.908000000000000E+04   0.338765563964844E+03  1    1   11   25 6          1   0.9436641E+00   0.5445459E+00   0.1000000E+01   0.997746565781888E+04   0.581781835448861E+04   0.320139739990234E+03 PG00
         20     1  2   0.000000000000000E+00   0.855295066258456E+05  1    1    3    5 6          1   0.9000000E+00   0.7000000E+00   0.1000000E+01   0.196000000000000E+04   0.908000000000000E+04   0.338765563964844E+03  1    1   11   25 6          1   0.9418250E+00   0.7988146E+00   0.1000000E+01   0.997673001416795E+04   0.591952582850968E+04   0.320139739990234E+03 PG00
         21     1  2   0.000000000000000E+00   0.925202854833727E+05  1    1    3    5 6          1   0.1000000E+00   0.9000000E+00   0.1000000E+01   0.164000000000000E+04   0.916000000000000E+04   0.338765563964844E+03  1    1   11   25 6          1   0.9521491E+00   0.7086405E+00   0.1000000E+01   0.998085965258195E+04   0.588345621215274E+04   0.320139739990234E+03 PG00
         22     1  2   0.000000000000000E+00   0.896538348969456E+05  1    1    3    5 6          1   0.3000000E+00   0.9000000E+00   0.1000000E+01   0.172000000000000E+04   0.916000000000000E+04   0.338765563964844E+03  1    1   11   25 6          1   0.9504299E+00   0.9420899E+00   0.1000000E+01   0.998017194468736E+04   0.597683594847934E+04   0.320139739990234E+03 PG00
         23     1  2   0.000000000000000E+00   0.869667440053049E+05  1    1    3    5 6          1   0.5000000E+00   0.9000000E+00   0.1000000E+01   0.180000000000000E+04   0.916000000000000E+04   0.338765563964844E+03  1    1   10   25 6          1   0.9482788E+00   0.1947111E+00   0.1000000E+01   0.997931152786537E+04   0.607788445855071E+04   0.320139770507812E+03 PG00
         24     1  2   0.000000000000000E+00   0.843940866066911E+05  1    1    3    5 6          1   0.7000000E+00   0.9000000E+00   0.1000000E+01   0.188000000000000E+04   0.916000000000000E+04   0.338765563964844E+03  1    1   10   25 6          1   0.9462032E+00   0.4429044E+00   0.1000000E+01   0.997848127560942E+04   0.617716176637992E+04   0.320139770507812E+03 PG00
         25     1  2   0.000000000000000E+00   0.819834414500234E+05  1    1    3    5 6          1   0.9000000E+00   0.9000000E+00   0.1000000E+01   0.196000000000000E+04   0.916000000000000E+04   0.338765563964844E+03  1    1   10   25 6          1   0.9442477E+00   0.6832970E+00   0.1000000E+01   0.997769908475470E+04   0.627331878848738E+04   0.320139770507812E+03 PG00
         26     1  2   0.000000000000000E+00   0.664120868831283E+05  1    1    3    6 6          1   0.1000000E+00   0.1000000E+00   0.1000000E+01   0.204000000000000E+04   0.884000000000000E+04   0.338582763671875E+03  1    5   13   13 2          2   0.1000000E+01   0.5342184E+00   0.1821152E+00   0.520000000000000E+04   0.501368735741789E+04   0.182115196388572E+02 PG00
         27     1  2   0.000000000000000E+00   0.117165647675642E+06  1    1    3    6 6          1   0.3000000E+00   0.1000000E+00   0.1000000E+01   0.212000000000000E+04   0.884000000000000E+04   0.338582763671875E+03  1    1   13   25 6          1   0.9434425E+00   0.6639283E+00   0.1000000E+01   0.997737699913684E+04   0.506557131234159E+04   0.320139678955078E+03 PG00
         28     1  2   0.000000000000000E+00   0.100026935983374E+06  1    1    3    6 6          1   0.5000000E+00   0.1000000E+00   0.1000000E+01   0.220000000000000E+04   0.884000000000000E+04   0.338582763671875E+03  1    1   12   25 6          1   0.9346117E+00   0.2665770E-01   0.1000000E+01   0.997384467160039E+04   0.521066307920794E+04   0.320139709472656E+03 PG00
         29     1  2   0.000000000000000E+00   0.918383113039840E+05  1    1    3    6 6          1   0.7000000E+00   0.1000000E+00   0.1000000E+01   0.228000000000000E+04   0.884000000000000E+04   0.338582763671875E+03  1    1   12   25 6          1   0.9296222E+00   0.3597552E+00   0.1000000E+01   0.997184887499077E+04   0.534390209343809E+04   0.320139709472656E+03 PG00
         30     1  2   0.000000000000000E+00   0.856897113505560E+05  1    1    3    6 6          1   0.9000000E+00   0.1000000E+00   0.1000000E+01   0.236000000000000E+04   0.884000000000000E+04   0.338582763671875E+03  1    1   12   25 6          1   0.9260968E+00   0.7267870E+00   0.1000000E+01   0.997043870163689E+04   0.549071481554609E+04   0.320139709472656E+03 PG00
         31     1  2   0.000000000000000E+00   0.976157961982894E+05  1    1    3    6 6          1   0.1000000E+00   0.3000000E+00   0.1000000E+01   0.204000000000000E+04   0.892000000000000E+04   0.338582763671875E+03  1    1   12   25 6          1   0.9378916E+00   0.2887505E+00   0.1000000E+01   0.997515662554440E+04   0.531550020436190E+04   0.320139709472656E+03 PG00
         32     1  2   0.000000000000000E+00   0.915046669340475E+05  1    1    3    6 6          1   0.3000000E+00   0.3000000E+00   0.1000000E+01   0.212000000000000E+04   0.892000000000000E+04   0.338582763671875E+03  1    1   12   25 6          1   0.9343190E+00   0.6151710E+00   0.1000000E+01   0.997372758291181E+04   0.544606839798041E+04   0.320139709472656E+03 PG00
         33     1  2   0.000000000000000E+00   0.867458876636381E+05  1    1    3    6 6          1   0.5000000E+00   0.3000000E+00   0.1000000E+01   0.220000000000000E+04   0.892000000000000E+04   0.338582763671875E+03  1    1   12   25 6          1   0.9320563E+00   0.9267372E+00   0.1000000E+01   0.997282253705228E+04   0.557069488347710E+04   0.320139709472656E+03 PG00
         34     1  2   0.000000000000000E+00   0.829434091449637E+05  1    1    3    6 6          1   0.7000000E+00   0.3000000E+00   0.1000000E+01   0.228000000000000E+04   0.892000000000000E+04   0.338582763671875E+03  1    1   11   25 6          1   0.9291737E+00   0.2301816E+00   0.1000000E+01   0.997166946152281E+04   0.569207262045245E+04   0.320139739990234E+03 PG00
         35     1  2   0.000000000000000E+00   0.792869150465698E+05  1    1    3    6 6          1   0.9000000E+00   0.3000000E+00   0.1000000E+01   0.236000000000000E+04   0.892000000000000E+04   0.338582763671875E+03  1    1   11   25 6          1   0.9267599E+00   0.5667921E+00   0.1000000E+01   0.997070397126324E+04   0.582671685230888E+04   0.320139739990234E+03 PG00
         36     1  2   0.000000000000000E+00   0.878947970158511E+05  1    1    3    6 6          1   0.1000000E+00   0.5000000E+00   0.1000000E+01   0.204000000000000E+04   0.900000000000000E+04   0.338582763671875E+03  1    1   11   25 6          1   0.9376184E+00   0.1925405E+00   0.1000000E+01   0.997504735000538E+04   0.567701621870975E+04   0.320139739990234E+03 PG00
         37     1  2   0.000000000000000E+00   0.843194804843069E+05  1    1    3    6 6          1   0.3000000E+00   0.5000000E+00   0.1000000E+01   0.212000000000000E+04   0.900000000000000E+04   0.338582763671875E+03  1    1   11   25 6          1   0.9352357E+00   0.4932230E+00   0.1000000E+01   0.997409428819880E+04   0.579728921132773E+04   0.320139739990234E+03 PG00
         38     1  2   0.000000000000000E+00   0.811546664911439E+05  1    1    3    6 6          1   0.5000000E+00   0.5000000E+00   0.1000000E+01   0.220000000000000E+04   0.900000000000000E+04   0.338582763671875E+03  1    1   11   25 6          1   0.9333078E+00   0.7832957E+00   0.1000000E+01   0.997332311870826E+04   0.591331829972415E+04   0.320139739990234E+03 PG00
         39     1  2   0.000000000000000E+00   0.783723428641362E+05  1    1    3    6 6          1   0.7000000E+00   0.5000000E+00   0.1000000E+01   0.228000000000000E+04   0.900000000000000E+04   0.338582763671875E+03  1    1   10   25 6          1   0.9313405E+00   0.6671497E-01   0.1000000E+01   0.997253618862067E+04   0.602668598738734E+04   0.320139770507812E+03 PG00
         40     1  2   0.000000000000000E+00   0.755765696213927E+05  1    1    3    6 6          1   0.9000000E+00   0.5000000E+00   0.1000000E+01   0.236000000000000E+04   0.900000000000000E+04   0.338582763671875E+03  1    1   10   25 6          1   0.9287980E+00   0.3824479E+00   0.1000000E+01   0.997151918674819E+04   0.615297916964657E+04   0.320139770507812E+03 PG00
         41     1  2   0.000000000000000E+00   0.831372293486224E+05  1    1    3    6 6          1   0.1000000E+00   0.7000000E+00   0.1000000E+01   0.204000000000000E+04   0.908000000000000E+04   0.338582763671875E+03  1    1   10   25 6          1   0.9399594E+00   0.6383578E-01   0.1000000E+01   0.997598374895820E+04   0.602553431100000E+04   0.320139770507812E+03 PG00
         42     1  2   0.000000000000000E+00   0.803733178568829E+05  1    1    3    6 6          1   0.3000000E+00   0.7000000E+00   0.1000000E+01   0.212000000000000E+04   0.908000000000000E+04   0.338582763671875E+03  1    1   10   25 6          1   0.9375603E+00   0.3483555E+00   0.1000000E+01   0.997502411992595E+04   0.613934219603746E+04   0.320139770507812E+03 PG00
         43     1  2   0.000000000000000E+00   0.777966408700463E+05  1    1    3    6 6          1   0.5000000E+00   0.7000000E+00   0.1000000E+01   0.220000000000000E+04   0.908000000000000E+04   0.338582763671875E+03  1    1   10   25 6          1   0.9354622E+00   0.6218976E+00   0.1000000E+01   0.997418489289456E+04   0.624875902250886E+04   0.320139770507812E+03 PG00
         44     1  2   0.000000000000000E+00   0.754749423176125E+05  1    1    3    6 6          1   0.7000000E+00   0.7000000E+00   0.1000000E+01   0.228000000000000E+04   0.908000000000000E+04   0.338582763671875E+03  1    1   10   25 6          1   0.9336032E+00   0.8873971E+00   0.1000000E+01   0.997344129790726E+04   0.635495884165603E+04   0.320139770507812E+03 PG00
         45     1  2   0.000000000000000E+00   0.731001907419934E+05  1    1    3    6 6          1   0.9000000E+00   0.7000000E+00   0.1000000E+01   0.236000000000000E+04   0.908000000000000E+04   0.338582763671875E+03  1    1    9   25 6          1   0.9313674E+00   0.1816518E+00   0.1000000E+01   0.997254695176416E+04   0.647266072187759E+04   0.320139831542969E+03 PG00
         46     1  2   0.000000000000000E+00   0.797081805056843E+05  1    1    3    6 6          1   0.1000000E+00   0.9000000E+00   0.1000000E+01   0.204000000000000E+04   0.916000000000000E+04   0.338582763671875E+03  1    1   10   25 6          1   0.9425258E+00   0.9290412E+00   0.1000000E+01   0.997701031744624E+04   0.637161647831654E+04   0.320139770507812E+03 PG00
         47     1  2   0.000000000000000E+00   0.778000968690022E+05  1    1    3    6 6          1   0.3000000E+00   0.9000000E+00   0.1000000E+01   0.212000000000000E+04   0.916000000000000E+04   0.338582763671875E+03  1    1    9   25 6          1   0.9402240E+00   0.1926328E+00   0.1000000E+01   0.997608959339150E+04   0.647705311273793E+04   0.320139831542969E+03 PG00
         48     1  2   0.000000000000000E+00   0.755398283087403E+05  1    1    3    6 6          1   0.5000000E+00   0.9000000E+00   0.1000000E+01   0.220000000000000E+04   0.916000000000000E+04   0.338582763671875E+03  1    1    9   25 6          1   0.9379125E+00   0.4500347E+00   0.1000000E+01   0.997516499847528E+04   0.658001388750229E+04   0.320139831542969E+03 PG00
         49     1  2   0.000000000000000E+00   0.734446843482079E+05  1    1    3    6 6          1   0.7000000E+00   0.9000000E+00   0.1000000E+01   0.228000000000000E+04   0.916000000000000E+04   0.338582763671875E+03  1    1    9   25 6          1   0.9357484E+00   0.6984685E+00   0.1000000E+01   0.997429934829835E+04   0.667938741185626E+04   0.320139831542969E+03 PG00
         50     1  2   0.000000000000000E+00   0.713209115679163E+05  1    1    3    6 6          1   0.9000000E+00   0.9000000E+00   0.1000000E+01   0.236000000000000E+04   0.916000000000000E+04   0.338582763671875E+03  1    1    9   25 6          1   0.9338217E+00   0.9717375E+00   0.1000000E+01   0.997352866200881E+04   0.678869501745452E+04   0.320139831542969E+03 PG00
         51     1  2   0.000000000000000E+00   0.809950966037881E+05  1    1    3    7 6          1   0.1000000E+00   0.1000000E+00   0.1000000E+01   0.244000000000000E+04   0.884000000000000E+04   0.338359710693359E+03  1    1   11   25 6          1   0.9236260E+00   0.8029499E-01   0.1000000E+01   0.996945040698216E+04   0.563211799452703E+04   0.320139739990234E+03 PG00
         52     1  2   0.000000000000000E+00   0.771434120090917E+05  1    1    3    7 6          1   0.3000000E+00   0.1000000E+00   0.1000000E+01   0.252000000000000E+04   0.884000000000000E+04   0.338359710693359E+03  1    1   11   25 6          1   0.9205499E+00   0.4230106E+00   0.1000000E+01   0.996821994854777E+04   0.576920423567117E+04   0.320139739990234E+03 PG00
         53     1  2   0.000000000000000E+00   0.736484287221788E+05  1    1    3    7 6          1   0.5000000E+00   0.1000000E+00   0.1000000E+01   0.260000000000000E+04   0.884000000000000E+04   0.338359710693359E+03  1    1   11   25 6          1   0.9183027E+00   0.7921971E+00   0.1000000E+01   0.996732108529300E+04   0.591687884386892E+04   0.320139739990234E+03 PG00
         54     1  2   0.000000000000000E+00   0.705036449051056E+05  1    1    3    7 6          1   0.7000000E+00   0.1000000E+00   0.1000000E+01   0.268000000000000E+04   0.884000000000000E+04   0.338359710693359E+03  1    1   10   25 6          1   0.9159538E+00   0.1603800E+00   0.1000000E+01   0.996638150481242E+04   0.606415200635638E+04   0.320139770507812E+03 PG00
         55     1  2   0.000000000000000E+00   0.676167921043744E+05  1    1    3    7 6          1   0.9000000E+00   0.1000000E+00   0.1000000E+01   0.276000000000000E+04   0.884000000000000E+04   0.338359710693359E+03  1    1   10   25 6          1   0.9132185E+00   0.5177531E+00   0.1000000E+01   0.996528739327293E+04   0.620710122069781E+04   0.320139770507812E+03 PG00
         56     1  2   0.000000000000000E+00   0.760702639571241E+05  1    1    3    7 6          1   0.1000000E+00   0.3000000E+00   0.1000000E+01   0.244000000000000E+04   0.892000000000000E+04   0.338359710693359E+03  1    1   11   25 6          1   0.9249347E+00   0.8940384E+00   0.1000000E+01   0.996997388127501E+04   0.595761535210818E+04   0.320139739990234E+03 PG00
         57     1  2   0.000000000000000E+00   0.731818784578524E+05  1    1    3    7 6          1   0.3000000E+00   0.3000000E+00   0.1000000E+01   0.252000000000000E+04   0.892000000000000E+04   0.338359710693359E+03  1    1   10   25 6          1   0.9224727E+00   0.2137070E+00   0.1000000E+01   0.996898909752504E+04   0.608548280959115E+04   0.320139770507812E+03 PG00
         58     1  2   0.000000000000000E+00   0.704770266249156E+05  1    1    3    7 6          1   0.5000000E+00   0.3000000E+00   0.1000000E+01   0.260000000000000E+04   0.892000000000000E+04   0.338359710693359E+03  1    1   10   25 6          1   0.9199507E+00   0.5573885E+00   0.1000000E+01   0.996798027402490E+04   0.622295538837472E+04   0.320139770507812E+03 PG00
         59     1  2   0.000000000000000E+00   0.678729933094210E+05  1    1    3    7 6          1   0.7000000E+00   0.3000000E+00   0.1000000E+01   0.268000000000000E+04   0.892000000000000E+04   0.338359710693359E+03  1    1   10   25 6          1   0.9179966E+00   0.8983251E+00   0.1000000E+01   0.996719864656511E+04   0.635933003047619E+04   0.320139770507812E+03 PG00
         60     1  2   0.000000000000000E+00   0.654206786839907E+05  1    1    3    7 6          1   0.9000000E+00   0.3000000E+00   0.1000000E+01   0.276000000000000E+04   0.892000000000000E+04   0.338359710693359E+03  1    1    9   25 6          1   0.9152851E+00   0.2322321E+00   0.1000000E+01   0.996611402122718E+04   0.649289283376282E+04   0.320139831542969E+03 PG00
         61     1  2   0.000000000000000E+00   0.729737133361363E+05  1    1    3    7 6          1   0.1000000E+00   0.5000000E+00   0.1000000E+01   0.244000000000000E+04   0.900000000000000E+04   0.338359710693359E+03  1    1   10   25 6          1   0.9266967E+00   0.6877906E+00   0.1000000E+01   0.997067869072658E+04   0.627511625489463E+04   0.320139770507812E+03 PG00
         62     1  2   0.000000000000000E+00   0.705509062098074E+05  1    1    3    7 6          1   0.3000000E+00   0.5000000E+00   0.1000000E+01   0.252000000000000E+04   0.900000000000000E+04   0.338359710693359E+03  1    1   10   25 6          1   0.9248549E+00   0.9865042E+00   0.1000000E+01   0.996994196513272E+04   0.639460169359858E+04   0.320139770507812E+03 PG00
         63     1  2   0.000000000000000E+00   0.682580454230930E+05  1    1    3    7 6          1   0.5000000E+00   0.5000000E+00   0.1000000E+01   0.260000000000000E+04   0.900000000000000E+04   0.338359710693359E+03  1    1    9   25 6          1   0.9220960E+00   0.3054961E+00   0.1000000E+01   0.996883840667671E+04   0.652219844695042E+04   0.320139831542969E+03 PG00
         64     1  2   0.000000000000000E+00   0.659836049818482E+05  1    1    3    7 6          1   0.7000000E+00   0.5000000E+00   0.1000000E+01   0.268000000000000E+04   0.900000000000000E+04   0.338359710693359E+03  1    1    9   25 6          1   0.9194907E+00   0.6224985E+00   0.1000000E+01   0.996779627617824E+04   0.664899940496388E+04   0.320139831542969E+03 PG00
         65     1  2   0.000000000000000E+00   0.637631881490863E+05  1    1    3    7 6          1   0.9000000E+00   0.5000000E+00   0.1000000E+01   0.276000000000000E+04   0.900000000000000E+04   0.338359710693359E+03  1    1    9   25 6          1   0.9172885E+00   0.9320580E+00   0.1000000E+01   0.996691539037601E+04   0.677282320762198E+04   0.320139831542969E+03 PG00
         66     1  2   0.000000000000000E+00   0.708403506648333E+05  1    1    3    7 6          1   0.1000000E+00   0.7000000E+00   0.1000000E+01   0.244000000000000E+04   0.908000000000000E+04   0.338359710693359E+03  1    1    9   25 6          1   0.9288236E+00   0.4678697E+00   0.1000000E+01   0.997152943647763E+04   0.658714788696090E+04   0.320139831542969E+03 PG00
         67     1  2   0.000000000000000E+00   0.686570183707340E+05  1    1    3    7 6          1   0.3000000E+00   0.7000000E+00   0.1000000E+01   0.252000000000000E+04   0.908000000000000E+04   0.338359710693359E+03  1    1    9   25 6          1   0.9265436E+00   0.7448927E+00   0.1000000E+01   0.997061744794332E+04   0.669795709018475E+04   0.320139831542969E+03 PG00
         68     1  2   0.000000000000000E+00   0.666133136640119E+05  1    1    3    7 6          1   0.5000000E+00   0.7000000E+00   0.1000000E+01   0.260000000000000E+04   0.908000000000000E+04   0.338359710693359E+03  1    1    8   25 6          1   0.9243687E+00   0.4081869E-01   0.1000000E+01   0.996974748189177E+04   0.681632747614314E+04   0.320139923095703E+03 PG00
         69     1  2   0.000000000000000E+00   0.645431879474986E+05  1    1    3    7 6          1   0.7000000E+00   0.7000000E+00   0.1000000E+01   0.268000000000000E+04   0.908000000000000E+04   0.338359710693359E+03  1    1    8   25 6          1   0.9213089E+00   0.3339355E+00   0.1000000E+01   0.996852356701058E+04   0.693357418717491E+04   0.320139923095703E+03 PG00
         70     1  2   0.000000000000000E+00   0.624896634222047E+05  1    1    3    7 6          1   0.9000000E+00   0.7000000E+00   0.1000000E+01   0.276000000000000E+04   0.908000000000000E+04   0.338359710693359E+03  1    1    8   25 6          1   0.9184660E+00   0.6201860E+00   0.1000000E+01   0.996738639633754E+04   0.704807439000751E+04   0.320139923095703E+03 PG00
         71     1  2   0.000000000000000E+00   0.692500279509854E+05  1    1    3    7 6          1   0.1000000E+00   0.9000000E+00   0.1000000E+01   0.244000000000000E+04   0.916000000000000E+04   0.338359710693359E+03  1    1    8   25 6          1   0.9310348E+00   0.2378122E+00   0.1000000E+01   0.997241390739426E+04   0.689512489053216E+04   0.320139923095703E+03 PG00
         72     1  2   0.000000000000000E+00   0.672444857442681E+05  1    1    3    7 6          1   0.3000000E+00   0.9000000E+00   0.1000000E+01   0.252000000000000E+04   0.916000000000000E+04   0.338359710693359E+03  1    1    8   25 6          1   0.9283619E+00   0.4943897E+00   0.1000000E+01   0.997134476435194E+04   0.699775589579285E+04   0.320139923095703E+03 PG00
         73     1  2   0.000000000000000E+00   0.653441866996740E+05  1    1    3    7 6          1   0.5000000E+00   0.9000000E+00   0.1000000E+01   0.260000000000000E+04   0.916000000000000E+04   0.338359710693359E+03  1    1    8   25 6          1   0.9258127E+00   0.7661778E+00   0.1000000E+01   0.997032506364309E+04   0.710647111622785E+04   0.320139923095703E+03 PG00
         74     1  2   0.000000000000000E+00   0.634082349990713E+05  1    1    3    7 6          1   0.7000000E+00   0.9000000E+00   0.1000000E+01   0.268000000000000E+04   0.916000000000000E+04   0.338359710693359E+03  1    1    7   25 6          1   0.9232509E+00   0.3516405E-01   0.1000000E+01   0.996930035591539E+04   0.721406561836150E+04   0.320139984130859E+03 PG00
         75     1  2   0.000000000000000E+00   0.614809299687292E+05  1    1    3    7 6          1   0.9000000E+00   0.9000000E+00   0.1000000E+01   0.276000000000000E+04   0.916000000000000E+04   0.338359710693359E+03  1    1    7   25 6          1   0.9199512E+00   0.2979720E+00   0.1000000E+01   0.996798049164011E+04   0.731918880066352E+04   0.320139984130859E+03 PG00
         76     1  2   0.000000000000000E+00   0.347602179080145E+05  1    1    4    5 6          1   0.1000000E+00   0.1000000E+00   0.1000000E+01   0.164000000000000E+04   0.844000000000000E+04   0.338761901855469E+03  1    5   13   13 4          2   0.9789463E+00   0.1000000E+01   0.4006953E+00   0.519157851810879E+04   0.520000000000000E+04   0.400695261222184E+02 PG00
         77     1  2   0.000000000000000E+00   0.342875692628182E+05  1    1    4    5 6          1   0.3000000E+00   0.1000000E+00   0.1000000E+01   0.172000000000000E+04   0.844000000000000E+04   0.338761901855469E+03  1    5   13   13 4          2   0.9970306E+00   0.1000000E+01   0.4130770E+00   0.519881225271817E+04   0.520000000000000E+04   0.413076967697581E+02 PG00
         78     1  2   0.000000000000000E+00   0.338987295014868E+05  1    1    4    5 6          1   0.5000000E+00   0.1000000E+00   0.1000000E+01   0.180000000000000E+04   0.844000000000000E+04   0.338761901855469E+03  1    5   13   13 2          2   0.1000000E+01   0.9812193E+00   0.4199339E+00   0.520000000000000E+04   0.519248771707678E+04   0.419933933933388E+02 PG00