# Discretization file for MODFLOW, generated by Flopy.
         2        61        61         3         4         2
  0  0
        0  5.000e+01           (5G13.0)         -1 DELR(NCOL)
        0  5.000e+01           (5G13.0)         -1 DELC(NROW)
        11         1           (5G13.0)         -1 TOP OF SYSTEM
          -10          -10          -10          -10          -10
          -10          -10          -10          -10          -10
          -10          -10          -10          -10          -10
          -10          -10          -10          -10          -10
          -10          -10          -10          -10          -10
          -10          -10          -10          -10          -10
          -10          -10          -10          -10          -10
          -10          -10          -10          -10          -10
          -10          -10          -10          -10          -10
          -10          -10          -10          -10          -10
          -10          -10          -10          -10          -10
          -10          -10          -10          -10          -10
          -10
          -10          -10          -10          -10          -10
          -10          -10          -10          -10          -10
          -10          -10          -10          -10          -10
          -10          -10          -10          -10          -10
          -10          -10          -10          -10          -10
          -10          -10          -10          -10          -10
          -10          -10          -10          -10          -10
          -10          -10          -10          -10          -10
          -10          -10          -10          -10          -10
          -10          -10          -10          -10          -10
          -10          -10          -10          -10          -10
          -10          -10          -10          -10          -10
          -10
          -10          -10          -10          -10          -10
          -10          -10          -10          -10          -10
          -10          -10          -10          -10          -10
          -10          -10          -10          -10          -10
          -10          -10          -10          -10          -10
          -10          -10          -10          -10          -10
          -10          -10          -10          -10          -10
          -10          -10          -10          -10          -10
          -10          -10          -10          -10          -10
          -10          -10          -10          -10          -10
          -10          -10          -10          -10          -10
          -10          -10          -10          -10          -10
          -10
          -10          -10          -10          -10          -10
          -10          -10          -10          -10          -10
          -10          -10          -10          -10          -10
          -10          -10          -10          -10          -10
          -10          -10          -10          -10          -10
          -10          -10          -10          -10          -10
          -10          -10          -10          -10          -10
          -10          -10          -10          -10          -10
          -10          -10          -10          -10          -10
          -10          -10          -10          -10          -10
          -10          -10          -10          -10          -10
          -10          -10          -10          -10          -10
          -10
          -10          -10          -10          -10          -10
          -10          -10          -10          -10          -10
          -10          -10          -10          -10          -10
          -10          -10          -10          -10          -10
          -10          -10          -10          -10          -10
          -10          -10          -10          -10          -10
          -10          -10          -10          -10          -10
          -10          -10          -10          -10          -10
          -10          -10          -10          -10          -10
          -10          -10          -10          -10          -10
          -10          -10          -10          -10          -10
          -10          -10          -10          -10          -10
          -10
          -10          -10          -10          -10          -10
          -10          -10          -10          -10          -10
          -10          -10          -10          -10          -10
          -10          -10          -10          -10          -10
          -10          -10          -10          -10          -10
          -10          -10          -10          -10          -10
          -10          -10          -10          -10          -10
          -10          -10          -10          -10          -10
          -10          -10          -10          -10          -10
          -10          -10          -10          -10          -10
          -10          -10          -10          -10          -10
          -10          -10          -10          -10          -10
          -10
          -10          -10          -10          -10          -10
          -10          -10          -10          -10          -10
          -10          -10          -10          -10          -10
          -10          -10          -10          -10          -10
          -10          -10          -10          -10          -10
          -10          -10          -10          -10          -10
          -10          -10          -10          -10          -10
          -10          -10          -10          -10          -10
          -10          -10          -10          -10          -10
          -10          -10          -10          -10          -10
          -10          -10          -10          -10          -10
          -10          -10          -10          -10          -10
          -10
          -10          -10          -10          -10          -10
          -10          -10          -10          -10          -10
          -10          -10          -10          -10          -10
          -10          -10          -10          -10          -10
          -10          -10          -10          -10          -10
          -10          -10          -10          -10          -10
          -10          -10          -10          -10          -10
          -10          -10          -10          -10          -10
          -10          -10          -10          -10          -10
          -10          -10          -10          -10          -10
          -10          -10          -10          -10          -10
          -10          -10          -10          -10          -10
          -10
          -10          -10          -10          -10          -10
          -10          -10          -10          -10          -10
          -10          -10          -10          -10          -10
          -10          -10          -10          -10          -10
          -10          -10          -10          -10          -10
          -10          -10          -10          -10          -10
          -10          -10          -10          -10          -10
          -10          -10          -10          -10          -10
          -10          -10          -10          -10          -10
          -10          -10          -10          -10          -10
          -10          -10          -10          -10          -10
          -10          -10          -10          -10          -10
          -10
          -10          -10          -10          -10          -10
          -10          -10          -10          -10          -10
          -10          -10          -10          -10          -10
          -10          -10          -10          -10          -10
          -10          -10          -10          -10          -10
          -10          -10          -10          -10          -10
          -10          -10          -10          -10          -10
          -10          -10          -10          -10          -10
          -10          -10          -10          -10          -10
          -10          -10          -10          -10          -10
          -10          -10          -10          -10          -10
          -10          -10          -10          -10          -10
          -10
          -10          -10          -10          -10          -10
          -10          -10          -10          -10          -10
          -10          -10          -10          -10          -10
          -10          -10          -10          -10          -10
          -10          -10          -10          -10          -10
          -10          -10          -10          -10          -10
          -10          -10          -10          -10          -10
          -10          -10          -10          -10          -10
          -10          -10          -10          -10          -10
          -10          -10          -10          -10          -10
          -10          -10          -10          -10          -10
          -10          -10          -10          -10          -10
          -10
          -10          -10          -10          -10          -10
          -10          -10          -10          -10          -10
          -10          -10          -10          -10          -10
          -10          -10          -10          -10          -10
          -10          -10          -10          -10          -10
          -10          -10          -10          -10          -10
          -10          -10          -10          -10          -10
          -10          -10          -10          -10          -10
          -10          -10          -10          -10          -10
          -10          -10          -10          -10          -10
          -10          -10          -10          -10          -10
          -10          -10          -10          -10          -10
          -10
          -10          -10          -10          -10          -10
          -10          -10          -10          -10          -10
          -10          -10          -10          -10          -10
          -10          -10          -10          -10          -10
          -10          -10          -10          -10          -10
          -10          -10          -10          -10          -10
          -10          -10          -10          -10          -10
          -10          -10          -10          -10          -10
          -10          -10          -10          -10          -10
          -10          -10          -10          -10          -10
          -10          -10          -10          -10          -10
          -10          -10          -10          -10          -10
          -10
          -10          -10          -10          -10          -10
          -10          -10          -10          -10          -10
          -10          -10          -10          -10          -10
          -10          -10          -10          -10          -10
          -10          -10          -10          -10          -10
          -10          -10          -10          -10          -10
          -10          -10          -10          -10          -10
          -10          -10          -10          -10          -10
          -10          -10          -10          -10          -10
          -10          -10          -10          -10          -10
          -10          -10          -10          -10          -10
          -10          -10          -10          -10          -10
          -10
          -10          -10          -10          -10          -10
          -10          -10          -10          -10          -10
          -10          -10          -10          -10          -10
          -10          -10          -10          -10          -10
          -10          -10          -10          -10          -10
          -10          -10          -10          -10          -10
          -10          -10          -10          -10          -10
          -10          -10          -10          -10          -10
          -10          -10          -10          -10          -10
          -10          -10          -10          -10          -10
          -10          -10          -10          -10          -10
          -10          -10          -10          -10          -10
          -10
          -10          -10          -10          -10          -10
          -10          -10          -10          -10          -10
          -10          -10          -10          -10          -10
          -10          -10          -10          -10          -10
          -10          -10          -10          -10          -10
          -10          -10          -10          -10          -10
          -10          -10          -10          -10          -10
          -10          -10          -10          -10          -10
          -10          -10          -10          -10          -10
          -10          -10          -10          -10          -10
          -10          -10          -10          -10          -10
          -10          -10          -10          -10          -10
          -10
          -10          -10          -10          -10          -10
          -10          -10          -10          -10          -10
          -10          -10          -10          -10          -10
          -10          -10          -10          -10          -10
          -10          -10          -10          -10          -10
          -10          -10          -10          -10          -10
          -10          -10          -10          -10          -10
          -10          -10          -10          -10          -10
          -10          -10          -10          -10          -10
          -10          -10          -10          -10          -10
          -10          -10          -10          -10          -10
          -10          -10          -10          -10          -10
          -10
          -10          -10          -10          -10          -10
          -10          -10          -10          -10          -10
          -10          -10          -10          -10          -10
          -10          -10          -10          -10          -10
          -10          -10          -10          -10          -10
          -10          -10          -10          -10          -10
          -10          -10          -10          -10          -10
          -10          -10          -10          -10          -10
          -10          -10          -10          -10          -10
          -10          -10          -10          -10          -10
          -10          -10          -10          -10          -10
          -10          -10          -10          -10          -10
          -10
          -10          -10          -10          -10          -10
          -10          -10          -10          -10          -10
          -10          -10          -10          -10          -10
          -10          -10          -10          -10          -10
          -10          -10          -10          -10          -10
          -10          -10          -10          -10          -10
          -10          -10          -10          -10          -10
          -10          -10          -10          -10          -10
          -10          -10          -10          -10          -10
          -10          -10          -10          -10          -10
          -10          -10          -10          -10          -10
          -10          -10          -10          -10          -10
          -10
          -10          -10          -10          -10          -10
          -10          -10          -10          -10          -10
          -10          -10          -10          -10          -10
          -10          -10          -10          -10          -10
          -10          -10          -10          -10          -10
          -10          -10          -10          -10          -10
          -10          -10          -10          -10          -10
          -10          -10          -10          -10          -10
          -10          -10          -10          -10          -10
          -10          -10          -10          -10          -10
          -10          -10          -10          -10          -10
          -10          -10          -10          -10          -10
          -10
          -10          -10          -10          -10          -10
          -10          -10          -10          -10          -10
          -10          -10          -10          -10          -10
          -10          -10          -10          -10          -10
          -10          -10          -10          -10          -10
          -10          -10          -10          -10          -10
          -10          -10          -10          -10          -10
          -10          -10          -10          -10          -10
          -10          -10          -10          -10          -10
          -10          -10          -10          -10          -10
          -10          -10          -10          -10          -10
          -10          -10          -10          -10          -10
          -10
          -10          -10          -10          -10          -10
          -10          -10          -10          -10          -10
          -10          -10          -10          -10          -10
          -10          -10          -10          -10          -10
          -10          -10          -10          -10          -10
          -10          -10          -10          -10          -10
          -10          -10          -10          -10          -10
          -10          -10          -10          -10          -10
          -10          -10          -10          -10          -10
          -10          -10          -10          -10          -10
          -10          -10          -10          -10          -10
          -10          -10          -10          -10          -10
          -10
          -10          -10          -10          -10          -10
          -10          -10          -10          -10          -10
          -10          -10          -10          -10          -10
          -10          -10          -10          -10          -10
          -10          -10          -10          -10          -10
          -10          -10          -10          -10          -10
          -10          -10          -10          -10          -10
          -10          -10          -10          -10          -10
          -10          -10          -10          -10          -10
          -10          -10          -10          -10          -10
          -10          -10          -10          -10          -10
          -10          -10          -10          -10          -10
          -10
          -10          -10          -10          -10          -10
          -10          -10          -10          -10          -10
          -10          -10          -10          -10          -10
          -10          -10          -10          -10          -10
          -10          -10          -10          -10          -10
          -10          -10          -10          -10          -10
          -10          -10          -10          -10          -10
          -10          -10          -10          -10          -10
          -10          -10          -10          -10          -10
          -10          -10          -10          -10          -10
          -10          -10          -10          -10          -10
          -10          -10          -10          -10          -10
          -10
          -10          -10          -10          -10          -10
          -10          -10          -10          -10          -10
          -10          -10          -10          -10          -10
          -10          -10          -10          -10          -10
          -10          -10          -10          -10          -10
          -10          -10          -10          -10          -10
          -10          -10          -10          -10          -10
          -10          -10          -10          -10          -10
          -10          -10          -10          -10          -10
          -10          -10          -10          -10          -10
          -10          -10          -10          -10          -10
          -10          -10          -10          -10          -10
          -10
          -10          -10          -10          -10          -10
          -10          -10          -10          -10          -10
          -10          -10          -10          -10          -10
          -10          -10          -10          -10          -10
          -10          -10          -10          -10          -10
          -10          -10          -10          -10          -10
          -10          -10          -10          -10          -10
          -10          -10          -10          -10          -10
          -10          -10          -10          -10          -10
          -10          -10          -10          -10          -10
          -10          -10          -10          -10          -10
          -10          -10          -10          -10          -10
          -10
          -10          -10          -10          -10          -10
          -10          -10          -10          -10          -10
          -10          -10          -10          -10          -10
          -10          -10          -10          -10          -10
          -10          -10          -10          -10          -10
          -10          -10          -10          -10          -10
          -10          -10          -10          -10          -10
          -10          -10          -10          -10          -10
          -10          -10          -10          -10          -10
          -10          -10          -10          -10          -10
          -10          -10          -10          -10          -10
          -10          -10          -10          -10          -10
          -10
          -10          -10          -10          -10          -10
          -10          -10          -10          -10          -10
          -10          -10          -10          -10          -10
          -10          -10          -10          -10          -10
          -10          -10          -10          -10          -10
          -10          -10          -10          -10          -10
          -10          -10          -10          -10          -10
          -10          -10          -10          -10          -10
          -10          -10          -10          -10          -10
          -10          -10          -10          -10          -10
          -10          -10          -10          -10          -10
          -10          -10          -10          -10          -10
          -10
          -10          -10          -10          -10          -10
          -10          -10          -10          -10          -10
          -10          -10          -10          -10          -10
          -10          -10          -10          -10          -10
          -10          -10          -10          -10          -10
          -10          -10          -10          -10          -10
          -10          -10          -10          -10          -10
          -10          -10          -10          -10          -10
          -10          -10          -10          -10          -10
          -10          -10          -10          -10          -10
          -10          -10          -10          -10          -10
          -10          -10          -10          -10          -10
          -10
          -10          -10          -10          -10          -10
          -10          -10          -10          -10          -10
          -10          -10          -10          -10          -10
          -10          -10          -10          -10          -10
          -10          -10          -10          -10          -10
          -10          -10          -10          -10          -10
          -10          -10          -10          -10          -10
          -10          -10          -10          -10          -10
          -10          -10          -10          -10          -10
          -10          -10          -10          -10          -10
          -10          -10          -10          -10          -10
          -10          -10          -10          -10          -10
          -10
          -10          -10          -10          -10          -10
          -10          -10          -10          -10          -10
          -10          -10          -10          -10          -10
          -10          -10          -10          -10          -10
          -10          -10          -10          -10          -10
          -10          -10          -10          -10          -10
          -10          -10          -10          -10          -10
          -10          -10          -10          -10          -10
          -10          -10          -10          -10          -10
          -10          -10          -10          -10          -10
          -10          -10          -10          -10          -10
          -10          -10          -10          -10          -10
          -10
          -10          -10          -10          -10          -10
          -10          -10          -10          -10          -10
          -10          -10          -10          -10          -10
          -10          -10          -10          -10          -10
          -10          -10          -10          -10          -10
          -10          -10          -10          -10          -10
          -10          -10          -10          -10          -10
          -10          -10          -10          -10          -10
          -10          -10          -10          -10          -10
          -10          -10          -10          -10          -10
          -10          -10          -10          -10          -10
          -10          -10          -10          -10          -10
          -10
          -10          -10          -10          -10          -10
          -10          -10          -10          -10          -10
          -10          -10          -10          -10          -10
          -10          -10          -10          -10          -10
          -10          -10          -10          -10          -10
          -10          -10          -10          -10          -10
          -10          -10          -10          -10          -10
          -10          -10          -10          -10          -10
          -10          -10          -10          -10          -10
          -10          -10          -10          -10          -10
          -10          -10          -10          -10          -10
          -10          -10          -10          -10          -10
          -10
          -10          -10          -10          -10          -10
          -10          -10          -10          -10          -10
          -10          -10          -10          -10          -10
          -10          -10          -10          -10          -10
          -10          -10          -10          -10          -10
          -10          -10          -10          -10          -10
          -10          -10          -10          -10          -10
          -10          -10          -10          -10          -10
          -10          -10          -10          -10          -10
          -10          -10          -10          -10          -10
          -10          -10          -10          -10          -10
          -10          -10          -10          -10          -10
          -10
          -10          -10          -10          -10          -10
          -10          -10          -10          -10          -10
          -10          -10          -10          -10          -10
          -10          -10          -10          -10          -10
          -10          -10          -10          -10          -10
          -10          -10          -10          -10          -10
          -10          -10          -10          -10          -10
          -10          -10          -10          -10          -10
          -10          -10          -10          -10          -10
          -10          -10          -10          -10          -10
          -10          -10          -10          -10          -10
          -10          -10          -10          -10          -10
          -10
          -10          -10          -10          -10          -10
          -10          -10          -10          -10          -10
          -10          -10          -10          -10          -10
          -10          -10          -10          -10          -10
          -10          -10          -10          -10          -10
          -10          -10          -10          -10          -10
          -10          -10          -10          -10          -10
          -10          -10          -10          -10          -10
          -10          -10          -10          -10          -10
          -10          -10          -10          -10          -10
          -10          -10          -10          -10          -10
          -10          -10          -10          -10          -10
          -10
          -10          -10          -10          -10          -10
          -10          -10          -10          -10          -10