# PCG for MODFLOW, generated by Flopy.
        50        30         1
  0.000010  0.000010  1.000000         0         0         3  1.000000
