#
# MT3DMS Name file for benchmark problem P01 case 1c
#

# Standard output file
LIST  0 p1.m3d

# Transport package input files
BTN   0 p1.btn
ADV   0 p1.adv
DSP   0 p1.dsp
SSM   0 p1.ssm
RCT   0 p1.rct
GCG   0 p1.gcg

# Flow-Transport Link input file
FTL   0 ..\flow\p1.ftl

# Uncomment the following lines to override
# the default names of optional MT3DMS output files
# mt3d001.ucn, mt3d001s.ucn, mt3d001.obs, mt3d001.mas, mt3d.cnf.
# The unit numbers for these files are preset in the
# MT3DMS code:
#
# data(binary) 201 p1.ucn
# data(binary) 301 p1s.ucn
# data         401 p1.obs
# data         601 p1.mas
# data         17  p1.cnf
