MT3DMS Benchmark Problem #8
Sudicky 1989 Waterloo test problem                                              
        27         1        50         1         5
 11  0  0  0  0  0  0 18  0  0  0 22  0  0 25  0  0  0  0  0  0 32  0  0
         0         0
         1         0(6x,20i3)                   -5   */IBOUND        layer: 1
        1  1  1  1  1  1  1  1  1  1  1  1  1  1  1  1  1  1  1  1
        1  1  1  1  1  1  1  1  1  1  1  1  1  1  1  1  1  1  1  1
        1  1  1  1  1  1  1  1  1 -1
         1         0(6x,20i3)                   -5   */IBOUND        layer: 2
        1  1  1  1  1  1  1  1  1  1  1  1  1  1  1  1  1  1  1  1
        1  1  1  1  1  1  1  1  1  1  1  1  1  1  1  1  1  1  1  1
        1  1  1  1  1  1  1  1  1 -1
         1         0(6x,20i3)                   -5   */IBOUND        layer: 3
        1  1  1  1  1  1  1  1  1  1  1  1  1  1  1  1  1  1  1  1
        1  1  1  1  1  1  1  1  1  1  1  1  1  1  1  1  1  1  1  1
        1  1  1  1  1  1  1  1  1 -1
         1         0(6x,20i3)                   -5   */IBOUND        layer: 4
        1  1  1  1  1  1  1  1  1  1  1  1  1  1  1  1  1  1  1  1
        1  1  1  1  1  1  1  1  1  1  1  1  1  1  1  1  1  1  1  1
        1  1  1  1  1  1  1  1  1 -1
         1         0(6x,20i3)                   -5   */IBOUND        layer: 5
        1  1  1  1  1  1  1  1  1  1  1  1  1  1  1  1  1  1  1  1
        1  1  1  1  1  1  1  1  1  1  1  1  1  1  1  1  1  1  1  1
        1  1  1  1  1  1  1  1  1 -1
         1         0(6x,20i3)                   -5   */IBOUND        layer: 6
        1  1  1  1  1  1  1  1  1  1  1  1  1  1  1  1  1  1  1  1
        1  1  1  1  1  1  1  1  1  1  1  1  1  1  1  1  1  1  1  1
        1  1  1  1  1  1  1  1  1 -1
         1         0(6x,20i3)                   -5   */IBOUND        layer: 7
        1  1  1  1  1  1  1  1  1  1  1  1  1  1  1  1  1  1  1  1
        1  1  1  1  1  1  1  1  1  1  1  1  1  1  1  1  1  1  1  1
        1  1  1  1  1  1  1  1  1 -1
         1         0(6x,20i3)                   -5   */IBOUND        layer: 8
        1  1  1  1  1  1  1  1  1  1  1  1  1  1  1  1  1  1  1  1
        1  1  1  1  1  1  1  1  1  1  1  1  1  1  1  1  1  1  1  1
        1  1  1  1  1  1  1  1  1 -1
         1         0(6x,20i3)                   -5   */IBOUND        layer: 9
        1  1  1  1  1  1  1  1  1  1  1  1  1  1  1  1  1  1  1  1
        1  1  1  1  1  1  1  1  1  1  1  1  1  1  1  1  1  1  1  1
        1  1  1  1  1  1  1  1  1 -1
         1         0(6x,20i3)                   -5   */IBOUND        layer:10
        1  1  1  1  1  1  1  1  1  1  1  1  1  1  1  1  1  1  1  1
        1  1  1  1  1  1  1  1  1  1  1  1  1  1  1  1  1  1  1  1
        1  1  1  1  1  1  1  1  1 -1
         1         0(6x,20i3)                   -5   */IBOUND        layer:11
        1  1  1  1  1  1  1  1  1  1  1  1  1  1  1  1  1  1  1  1
        1  1  1  1  1  1  1  1  1  1  1  1  1  1  1  1  1  1  1  1
        1  1  1  1  1  1  1  1  1 -1
         1         0(6x,20i3)                   -5   */IBOUND        layer:12
        1  1  1  1  1  1  1  1  1  1  1  1  1  1  1  1  1  1  1  1
        1  1  1  1  1  1  1  1  1  1  1  1  1  1  1  1  1  1  1  1
        1  1  1  1  1  1  1  1  1 -1
         1         0(6x,20i3)                   -5   */IBOUND        layer:13
        1  1  1  1  1  1  1  1  1  1  1  1  1  1  1  1  1  1  1  1
        1  1  1  1  1  1  1  1  1  1  1  1  1  1  1  1  1  1  1  1
        1  1  1  1  1  1  1  1  1 -1
         1         0(6x,20i3)                   -5   */IBOUND        layer:14
        1  1  1  1  1  1  1  1  1  1  1  1  1  1  1  1  1  1  1  1
        1  1  1  1  1  1  1  1  1  1  1  1  1  1  1  1  1  1  1  1
        1  1  1  1  1  1  1  1  1 -1
         1         0(6x,20i3)                   -5   */IBOUND        layer:15
        1  1  1  1  1  1  1  1  1  1  1  1  1  1  1  1  1  1  1  1
        1  1  1  1  1  1  1  1  1  1  1  1  1  1  1  1  1  1  1  1
        1  1  1  1  1  1  1  1  1 -1
         1         0(6x,20i3)                   -5   */IBOUND        layer:16
        1  1  1  1  1  1  1  1  1  1  1  1  1  1  1  1  1  1  1  1
        1  1  1  1  1  1  1  1  1  1  1  1  1  1  1  1  1  1  1  1
        1  1  1  1  1  1  1  1  1 -1
         1         0(6x,20i3)                   -5   */IBOUND        layer:17
        1  1  1  1  1  1  1  1  1  1  1  1  1  1  1  1  1  1  1  1
        1  1  1  1  1  1  1  1  1  1  1  1  1  1  1  1  1  1  1  1
        1  1  1  1  1  1  1  1  1 -1
         1         0(6x,20i3)                   -5   */IBOUND        layer:18
        1  1  1  1  1  1  1  1  1  1  1  1  1  1  1  1  1  1  1  1
        1  1  1  1  1  1  1  1  1  1  1  1  1  1  1  1  1  1  1  1
        1  1  1  1  1  1  1  1  1 -1
         1         0(6x,20i3)                   -5   */IBOUND        layer:19
        1  1  1  1  1  1  1  1  1  1  1  1  1  1  1  1  1  1  1  1
        1  1  1  1  1  1  1  1  1  1  1  1  1  1  1  1  1  1  1  1
        1  1  1  1  1  1  1  1  1 -1
         1         0(6x,20i3)                   -5   */IBOUND        layer:20
        1  1  1  1  1  1  1  1  1  1  1  1  1  1  1  1  1  1  1  1
        1  1  1  1  1  1  1  1  1  1  1  1  1  1  1  1  1  1  1  1
        1  1  1  1  1  1  1  1  1 -1
         1         0(6x,20i3)                   -5   */IBOUND        layer:21
        1  1  1  1  1  1  1  1  1  1  1  1  1  1  1  1  1  1  1  1
        1  1  1  1  1  1  1  1  1  1  1  1  1  1  1  1  1  1  1  1
        1  1  1  1  1  1  1  1  1 -1
         1         0(6x,20i3)                   -5   */IBOUND        layer:22
        1  1  1  1  1  1  1  1  1  1  1  1  1  1  1  1  1  1  1  1
        1  1  1  1  1  1  1  1  1  1  1  1  1  1  1  1  1  1  1  1
        1  1  1  1  1  1  1  1  1 -1
         1         0(6x,20i3)                   -5   */IBOUND        layer:23
        1  1  1  1  1  1  1  1  1  1  1  1  1  1  1  1  1  1  1  1
        1  1  1  1  1  1  1  1  1  1  1  1  1  1  1  1  1  1  1  1
        1  1  1  1  1  1  1  1  1 -1
         1         0(6x,20i3)                   -5   */IBOUND        layer:24
        1  1  1  1  1  1  1  1  1  1  1  1  1  1  1  1  1  1  1  1
        1  1  1  1  1  1  1  1  1  1  1  1  1  1  1  1  1  1  1  1
        1  1  1  1  1  1  1  1  1 -1
         1         0(6x,20i3)                   -5   */IBOUND        layer:25
        1  1  1  1  1  1  1  1  1  1  1  1  1  1  1  1  1  1  1  1
        1  1  1  1  1  1  1  1  1  1  1  1  1  1  1  1  1  1  1  1
        1  1  1  1  1  1  1  1  1 -1
         1         0(6x,20i3)                   -5   */IBOUND        layer:26
        1  1  1  1  1  1  1  1  1  1  1  1  1  1  1  1  1  1  1  1
        1  1  1  1  1  1  1  1  1  1  1  1  1  1  1  1  1  1  1  1
        1  1  1  1  1  1  1  1  1 -1
         1         0(6x,20i3)                   -5   */IBOUND        layer:27
        1  1  1  1  1  1  1  1  1  1  1  1  1  1  1  1  1  1  1  1
        1  1  1  1  1  1  1  1  1  1  1  1  1  1  1  1  1  1  1  1
        1  1  1  1  1  1  1  1  1 -1
  -999.000
        90 0.000E+00(12f12.0)                    1   */StartingHead  layer: 1
        90 0.000E+00(12f12.0)                    1   */StartingHead  layer: 2
        90 0.000E+00(12f12.0)                    1   */StartingHead  layer: 3
        90 0.000E+00(12f12.0)                    1   */StartingHead  layer: 4
        90 0.000E+00(12f12.0)                    1   */StartingHead  layer: 5
        90 0.000E+00(12f12.0)                    1   */StartingHead  layer: 6
        90 0.000E+00(12f12.0)                    1   */StartingHead  layer: 7
        90 0.000E+00(12f12.0)                    1   */StartingHead  layer: 8
        90 0.000E+00(12f12.0)                    1   */StartingHead  layer: 9
        90 0.000E+00(12f12.0)                    1   */StartingHead  layer:10
        90 0.000E+00(12f12.0)                    1   */StartingHead  layer:11
        90 0.000E+00(12f12.0)                    1   */StartingHead  layer:12
        90 0.000E+00(12f12.0)                    1   */StartingHead  layer:13
        90 0.000E+00(12f12.0)                    1   */StartingHead  layer:14
        90 0.000E+00(12f12.0)                    1   */StartingHead  layer:15
        90 0.000E+00(12f12.0)                    1   */StartingHead  layer:16
        90 0.000E+00(12f12.0)                    1   */StartingHead  layer:17
        90 0.000E+00(12f12.0)                    1   */StartingHead  layer:18
        90 0.000E+00(12f12.0)                    1   */StartingHead  layer:19
        90 0.000E+00(12f12.0)                    1   */StartingHead  layer:20
        90 0.000E+00(12f12.0)                    1   */StartingHead  layer:21
        90 0.000E+00(12f12.0)                    1   */StartingHead  layer:22
        90 0.000E+00(12f12.0)                    1   */StartingHead  layer:23
        90 0.000E+00(12f12.0)                    1   */StartingHead  layer:24
        90 0.000E+00(12f12.0)                    1   */StartingHead  layer:25
        90 0.000E+00(12f12.0)                    1   */StartingHead  layer:26
        90 0.000E+00(12f12.0)                    1   */StartingHead  layer:27
5.0000E+00         1     1.000                       */Stress Period:   1
1.5000E+01         1     1.000                       */Stress Period:   2
