 LISTING FILE: P8.M3D
                         UNIT  16

 OPENING p8.BTN
 FILE TYPE:BTN   UNIT   1

 OPENING p8.ADV
 FILE TYPE:ADV   UNIT   2

 OPENING p8.DSP
 FILE TYPE:DSP   UNIT   3

 OPENING p8.SSM
 FILE TYPE:SSM   UNIT   4

 OPENING p8.GCG
 FILE TYPE:GCG   UNIT   9

 OPENING p8.FTL
 FILE TYPE:FTL   UNIT  10

                              +++++++++++++++++++++++++++++++++++++++++++++++++++++++++++++++++++++++
                              +                                                                     +
                              +                               MT3DMS                                +
                              +             A Modular 3D Multi-Species Transport Model              +
                              +    For Simulation of Advection, Dispersion and Chemical Reactions   +
                              +                of Contaminants in Groundwater Systems               +
                              +                                                                     +
                              +++++++++++++++++++++++++++++++++++++++++++++++++++++++++++++++++++++++

  ----- 
 | M T | MT3DMS benchmark test problem #8                                                
 | 3 D | Sudicky 1989 Waterloo test problem                                              
  ----- 
 THE TRANSPORT MODEL CONSISTS OF    27 LAYER(S)    1 ROW(S)   50 COLUMN(S)
 NUMBER OF STRESS PERIOD(S) FOR TRANSPORT SIMULATION =    2
 NUMBER OF ALL COMPONENTS INCLUDED IN SIMULATION =    1
 NUMBER OF MOBILE COMPONENTS INCLUDED IN SIMULATION =    1
 UNIT FOR TIME IS YR  ;  UNIT FOR LENGTH IS M   ;  UNIT FOR MASS IS UNDF
 OPTIONAL PACKAGES INCLUDED IN CURRENT SIMULATION:
  o ADV   ON UNIT  2
  o DSP   ON UNIT  3
  o SSM   ON UNIT  4
  o GCG   ON UNIT  9

 BTN5 -- BASIC TRANSPORT PACKAGE, VERSION 5, FEBRUARY 2010, INPUT READ FROM UNIT  1
      20402 ELEMENTS OF THE  X ARRAY USED BY THE BTN PACKAGE
       1377 ELEMENTS OF THE IX ARRAY USED BY THE BTN PACKAGE

 FMI5 -- FLOW MODEL INTERFACE PACKAGE, VERSION 5, FEBRUARY 2010, INPUT READ FROM UNIT 10
 FLOW MODEL IS STEADY-STATE
 FLOW MODEL CONTAINS CONSTANT-HEAD CELLS

 ADV5 -- ADVECTION PACKAGE, VERSION 5, FEBRUARY 2010, INPUT READ FROM UNIT  2
 ADVECTION IS SOLVED WITH THE [MOC] SCHEME
 COURANT NUMBER ALLOWED IN SOLVING THE ADVECTION TERM =  1.00    
 MAXIMUM NUMBER OF MOVING PARTICLES ALLOWED =   50000
     200000 ELEMENTS OF THE  X ARRAY USED BY THE ADV PACKAGE
     101350 ELEMENTS OF THE IX ARRAY USED BY THE ADV PACKAGE

 DSP5 -- DISPERSION PACKAGE, VERSION 5, FEBRUARY 2010, INPUT READ FROM UNIT  3
      14904 ELEMENTS OF THE  X ARRAY USED BY THE DSP PACKAGE
          0 ELEMENTS OF THE IX ARRAY USED BY THE DSP PACKAGE

 SSM5 -- SINK & SOURCE MIXING PACKAGE, VERSION 5, FEBRUARY 2010, INPUT READ FROM UNIT  4
 HEADER LINE OF THE SSM PACKAGE INPUT FILE:
  F F T F F F                                                                                                                                                                                            
 MAJOR STRESS COMPONENTS PRESENT IN THE FLOW MODEL:
  o RECHARGE [RCH]
 MAXIMUM NUMBER OF POINT SINKS/SOURCES =    1000
      13100 ELEMENTS OF THE  X ARRAY USED BY THE SSM PACKAGE
         50 ELEMENTS OF THE IX ARRAY BY THE SSM PACKAGE

 GCG5 -- GENERALIZED CONJUGATE GRADIENT SOLVER PACKAGE, VERSION 5, FEBRUARY 2010 INPUT READ FROM UNIT  9
 MAXIMUM OF    1 OUTER ITERATIONS
        AND  200 INNER ITERATIONS ALLOWED FOR CLOSURE
 THE PRECONDITIONING TYPE SELECTED IS MODIFIED INCOMPLETE CHOLESKY (MIC).
 FULL DISPERSION TENSOR INCLUDED IN IMPLICIT SOLUTION
      62300 ELEMENTS OF THE  X ARRAY USED BY THE GCG PACKAGE
        600 ELEMENTS OF THE IX ARRAY USED BY THE GCG PACKAGE

 ..........................................
 ELEMENTS OF THE  X ARRAY USED =    310707
 ELEMENTS OF THE IX ARRAY USED =    103378
 ..........................................

 LAYER NUMBER  AQUIFER TYPE
 ------------  ------------
       1            1
       2            1
       3            1
       4            1
       5            1
       6            1
       7            0
       8            0
       9            0
      10            0
      11            0
      12            0
      13            0
      14            0
      15            0
      16            0
      17            0
      18            0
      19            0
      20            0
      21            0
      22            0
      23            0
      24            0
      25            0
      26            0
      27            0
                                       WIDTH ALONG ROWS (DELR)  =   5.000000    
                                       WIDTH ALONG COLS (DELC)  =   5.000000    
                                       TOP ELEV. OF 1ST LAYER   =   6.750000    
                                       CELL THICKNESS (DZ)      =  0.2500000     FOR LAYER  1
                                       CELL THICKNESS (DZ)      =  0.2500000     FOR LAYER  2
                                       CELL THICKNESS (DZ)      =  0.2500000     FOR LAYER  3
                                       CELL THICKNESS (DZ)      =  0.2500000     FOR LAYER  4
                                       CELL THICKNESS (DZ)      =  0.2500000     FOR LAYER  5
                                       CELL THICKNESS (DZ)      =  0.2500000     FOR LAYER  6
                                       CELL THICKNESS (DZ)      =  0.2500000     FOR LAYER  7
                                       CELL THICKNESS (DZ)      =  0.2500000     FOR LAYER  8
                                       CELL THICKNESS (DZ)      =  0.2500000     FOR LAYER  9
                                       CELL THICKNESS (DZ)      =  0.2500000     FOR LAYER 10
                                       CELL THICKNESS (DZ)      =  0.2500000     FOR LAYER 11
                                       CELL THICKNESS (DZ)      =  0.2500000     FOR LAYER 12
                                       CELL THICKNESS (DZ)      =  0.2500000     FOR LAYER 13
                                       CELL THICKNESS (DZ)      =  0.2500000     FOR LAYER 14
                                       CELL THICKNESS (DZ)      =  0.2500000     FOR LAYER 15
                                       CELL THICKNESS (DZ)      =  0.2500000     FOR LAYER 16
                                       CELL THICKNESS (DZ)      =  0.2500000     FOR LAYER 17
                                       CELL THICKNESS (DZ)      =  0.2500000     FOR LAYER 18
                                       CELL THICKNESS (DZ)      =  0.2500000     FOR LAYER 19
                                       CELL THICKNESS (DZ)      =  0.2500000     FOR LAYER 20
                                       CELL THICKNESS (DZ)      =  0.2500000     FOR LAYER 21
                                       CELL THICKNESS (DZ)      =  0.2500000     FOR LAYER 22
                                       CELL THICKNESS (DZ)      =  0.2500000     FOR LAYER 23
                                       CELL THICKNESS (DZ)      =  0.2500000     FOR LAYER 24
                                       CELL THICKNESS (DZ)      =  0.2500000     FOR LAYER 25
                                       CELL THICKNESS (DZ)      =  0.2500000     FOR LAYER 26
                                       CELL THICKNESS (DZ)      =  0.2500000     FOR LAYER 27
                                       POROSITY                 =  0.3500000     FOR LAYER  1
                                       POROSITY                 =  0.3500000     FOR LAYER  2
                                       POROSITY                 =  0.3500000     FOR LAYER  3
                                       POROSITY                 =  0.3500000     FOR LAYER  4
                                       POROSITY                 =  0.3500000     FOR LAYER  5
                                       POROSITY                 =  0.3500000     FOR LAYER  6
                                       POROSITY                 =  0.3500000     FOR LAYER  7
                                       POROSITY                 =  0.3500000     FOR LAYER  8
                                       POROSITY                 =  0.3500000     FOR LAYER  9
                                       POROSITY                 =  0.3500000     FOR LAYER 10
                                       POROSITY                 =  0.3500000     FOR LAYER 11
                                       POROSITY                 =  0.3500000     FOR LAYER 12
                                       POROSITY                 =  0.3500000     FOR LAYER 13
                                       POROSITY                 =  0.3500000     FOR LAYER 14
                                       POROSITY                 =  0.3500000     FOR LAYER 15
                                       POROSITY                 =  0.3500000     FOR LAYER 16
                                       POROSITY                 =  0.3500000     FOR LAYER 17
                                       POROSITY                 =  0.3500000     FOR LAYER 18
                                       POROSITY                 =  0.3500000     FOR LAYER 19
                                       POROSITY                 =  0.3500000     FOR LAYER 20
                                       POROSITY                 =  0.3500000     FOR LAYER 21
                                       POROSITY                 =  0.3500000     FOR LAYER 22
                                       POROSITY                 =  0.3500000     FOR LAYER 23
                                       POROSITY                 =  0.3500000     FOR LAYER 24
                                       POROSITY                 =  0.3500000     FOR LAYER 25
                                       POROSITY                 =  0.3500000     FOR LAYER 26
                                       POROSITY                 =  0.3500000     FOR LAYER 27
                                       CONCN. BOUNDARY ARRAY    =             -1 FOR LAYER  1
                                       CONCN. BOUNDARY ARRAY    =              1 FOR LAYER  2
                                       CONCN. BOUNDARY ARRAY    =              1 FOR LAYER  3
                                       CONCN. BOUNDARY ARRAY    =              1 FOR LAYER  4
                                       CONCN. BOUNDARY ARRAY    =              1 FOR LAYER  5
                                       CONCN. BOUNDARY ARRAY    =              1 FOR LAYER  6
                                       CONCN. BOUNDARY ARRAY    =              1 FOR LAYER  7
                                       CONCN. BOUNDARY ARRAY    =              1 FOR LAYER  8
                                       CONCN. BOUNDARY ARRAY    =              1 FOR LAYER  9
                                       CONCN. BOUNDARY ARRAY    =              1 FOR LAYER 10
                                       CONCN. BOUNDARY ARRAY    =              1 FOR LAYER 11
                                       CONCN. BOUNDARY ARRAY    =              1 FOR LAYER 12
                                       CONCN. BOUNDARY ARRAY    =              1 FOR LAYER 13
                                       CONCN. BOUNDARY ARRAY    =              1 FOR LAYER 14
                                       CONCN. BOUNDARY ARRAY    =              1 FOR LAYER 15
                                       CONCN. BOUNDARY ARRAY    =              1 FOR LAYER 16
                                       CONCN. BOUNDARY ARRAY    =              1 FOR LAYER 17
                                       CONCN. BOUNDARY ARRAY    =              1 FOR LAYER 18
                                       CONCN. BOUNDARY ARRAY    =              1 FOR LAYER 19
                                       CONCN. BOUNDARY ARRAY    =              1 FOR LAYER 20
                                       CONCN. BOUNDARY ARRAY    =              1 FOR LAYER 21
                                       CONCN. BOUNDARY ARRAY    =              1 FOR LAYER 22
                                       CONCN. BOUNDARY ARRAY    =              1 FOR LAYER 23
                                       CONCN. BOUNDARY ARRAY    =              1 FOR LAYER 24
                                       CONCN. BOUNDARY ARRAY    =              1 FOR LAYER 25
                                       CONCN. BOUNDARY ARRAY    =              1 FOR LAYER 26
                                       CONCN. BOUNDARY ARRAY    =              1 FOR LAYER 27

                     INITIAL CONC.: COMP.  01 FOR LAYER  1 READ ON UNIT  1 USING FORMAT: "(6x,10f11.0)        "
                     ------------------------------------------------------------------------------------------
                                       INITIAL CONC.: COMP.  01 =   0.000000     FOR LAYER  2
                                       INITIAL CONC.: COMP.  01 =   0.000000     FOR LAYER  3
                                       INITIAL CONC.: COMP.  01 =   0.000000     FOR LAYER  4
                                       INITIAL CONC.: COMP.  01 =   0.000000     FOR LAYER  5
                                       INITIAL CONC.: COMP.  01 =   0.000000     FOR LAYER  6
                                       INITIAL CONC.: COMP.  01 =   0.000000     FOR LAYER  7
                                       INITIAL CONC.: COMP.  01 =   0.000000     FOR LAYER  8
                                       INITIAL CONC.: COMP.  01 =   0.000000     FOR LAYER  9
                                       INITIAL CONC.: COMP.  01 =   0.000000     FOR LAYER 10
                                       INITIAL CONC.: COMP.  01 =   0.000000     FOR LAYER 11
                                       INITIAL CONC.: COMP.  01 =   0.000000     FOR LAYER 12
                                       INITIAL CONC.: COMP.  01 =   0.000000     FOR LAYER 13
                                       INITIAL CONC.: COMP.  01 =   0.000000     FOR LAYER 14
                                       INITIAL CONC.: COMP.  01 =   0.000000     FOR LAYER 15
                                       INITIAL CONC.: COMP.  01 =   0.000000     FOR LAYER 16
                                       INITIAL CONC.: COMP.  01 =   0.000000     FOR LAYER 17
                                       INITIAL CONC.: COMP.  01 =   0.000000     FOR LAYER 18
                                       INITIAL CONC.: COMP.  01 =   0.000000     FOR LAYER 19
                                       INITIAL CONC.: COMP.  01 =   0.000000     FOR LAYER 20
                                       INITIAL CONC.: COMP.  01 =   0.000000     FOR LAYER 21
                                       INITIAL CONC.: COMP.  01 =   0.000000     FOR LAYER 22
                                       INITIAL CONC.: COMP.  01 =   0.000000     FOR LAYER 23
                                       INITIAL CONC.: COMP.  01 =   0.000000     FOR LAYER 24
                                       INITIAL CONC.: COMP.  01 =   0.000000     FOR LAYER 25
                                       INITIAL CONC.: COMP.  01 =   0.000000     FOR LAYER 26
                                       INITIAL CONC.: COMP.  01 =   0.000000     FOR LAYER 27

 VALUE INDICATING INACTIVE CONCENTRATION CELLS =   -999.0000    
 MINIMUM SATURATED THICKNESS [THKMIN] ALLOWED =  0.0000 OF TOTAL CELL THICKNESS


 OUTPUT CONTROL OPTIONS
 ----------------------

 DO NOT PRINT CELL CONCENTRATION
 DO NOT PRINT PARTICLE NUMBER IN EACH CELL
 DO NOT PRINT RETARDATION FACTOR
 DO NOT PRINT DISPERSION COEFFICIENT
 SAVE DISSOLVED PHASE CONCENTRATIONS IN UNFORMATTED FILES [MT3Dnnn.UCN]
  FOR EACH SPECIES ON UNITS 201 AND ABOVE

 NUMBER OF TIMES AT WHICH SIMULATION RESULTS ARE SAVED =    5
 TOTAL ELAPSED TIMES AT WHICH SIMULATION RESULTS ARE SAVED: 
    2.5000       5.0000       8.0000       12.000       20.000    

 NUMBER OF OBSERVATION POINTS =    0

 SAVE ONE-LINE SUMMARY OF MASS BUDGETS IN FILES [MT3Dnnn.MAS]
  FOR EACH SPECIES ON UNITS 601 AND ABOVE, EVERY  1 TRANSPORT STEPS

 MAXIMUM LENGTH ALONG THE X (J) AXIS =   250.0000    
 MAXIMUM LENGTH ALONG THE Y (I) AXIS =   5.000000    
 MAXIMUM LENGTH ALONG THE Z (K) AXIS =   6.750000    


 ADVECTION SOLUTION OPTIONS
 --------------------------

 ADVECTION IS SOLVED WITH THE [MOC] SCHEME
 COURANT NUMBER ALLOWED IN SOLVING THE ADVECTION TERM =  1.00    
 MAXIMUM NUMBER OF MOVING PARTICLES ALLOWED =   50000
 METHOD FOR PARTICLE TRACKING IS [MIXED ORDER]
 CONCENTRATION WEIGHTING FACTOR [WD] =     0.500
 THE CONCENTRATION GRADIENT CONSIDERED NEGLIGIBLE [DCEPS] =  0.1000000E-04
 INITIAL PARTICLES ARE PLACED RANDOMLY WITHIN CELL BLOCK
 PARTICLE NUMBER PER CELL IF DCCELL =< DCEPS =    0
 PARTICLE NUMBER PER CELL IF DCCELL  > DCEPS =   10
 MINIMUM PARTICLE NUMBER ALLOWD PER CELL     =    2
 MAXIMUM PARTICLE NUMBER ALLOWD PER CELL     =   20
 MULTIPLIER OF PARTICLE NUMBER AT SOURCE     =  1.00    


 DISPERSION INPUT PARAMETERS
 ---------------------------

                                       LONG. DISPERSIVITY (AL)  =  0.5000000     FOR LAYER  1
                                       LONG. DISPERSIVITY (AL)  =  0.5000000     FOR LAYER  2
                                       LONG. DISPERSIVITY (AL)  =  0.5000000     FOR LAYER  3
                                       LONG. DISPERSIVITY (AL)  =  0.5000000     FOR LAYER  4
                                       LONG. DISPERSIVITY (AL)  =  0.5000000     FOR LAYER  5
                                       LONG. DISPERSIVITY (AL)  =  0.5000000     FOR LAYER  6
                                       LONG. DISPERSIVITY (AL)  =  0.5000000     FOR LAYER  7
                                       LONG. DISPERSIVITY (AL)  =  0.5000000     FOR LAYER  8
                                       LONG. DISPERSIVITY (AL)  =  0.5000000     FOR LAYER  9
                                       LONG. DISPERSIVITY (AL)  =  0.5000000     FOR LAYER 10
                                       LONG. DISPERSIVITY (AL)  =  0.5000000     FOR LAYER 11
                                       LONG. DISPERSIVITY (AL)  =  0.5000000     FOR LAYER 12
                                       LONG. DISPERSIVITY (AL)  =  0.5000000     FOR LAYER 13
                                       LONG. DISPERSIVITY (AL)  =  0.5000000     FOR LAYER 14
                                       LONG. DISPERSIVITY (AL)  =  0.5000000     FOR LAYER 15
                                       LONG. DISPERSIVITY (AL)  =  0.5000000     FOR LAYER 16
                                       LONG. DISPERSIVITY (AL)  =  0.5000000     FOR LAYER 17
                                       LONG. DISPERSIVITY (AL)  =  0.5000000     FOR LAYER 18
                                       LONG. DISPERSIVITY (AL)  =  0.5000000     FOR LAYER 19
                                       LONG. DISPERSIVITY (AL)  =  0.5000000     FOR LAYER 20
                                       LONG. DISPERSIVITY (AL)  =  0.5000000     FOR LAYER 21
                                       LONG. DISPERSIVITY (AL)  =  0.5000000     FOR LAYER 22
                                       LONG. DISPERSIVITY (AL)  =  0.5000000     FOR LAYER 23
                                       LONG. DISPERSIVITY (AL)  =  0.5000000     FOR LAYER 24
                                       LONG. DISPERSIVITY (AL)  =  0.5000000     FOR LAYER 25
                                       LONG. DISPERSIVITY (AL)  =  0.5000000     FOR LAYER 26
                                       LONG. DISPERSIVITY (AL)  =  0.5000000     FOR LAYER 27
                                       H. TRANS./LONG. DISP.    =  0.1000000E-01
                                       V. TRANS./LONG. DISP.    =  0.1000000E-01
                                       DIFFUSION COEFFICIENT    =  0.4200000E-01



                                               SOLUTION BY THE GENERALIZED CONJUGATE GRADIENT METHOD
                                               -----------------------------------------------------
                                     MAXIMUM OUTER ITERATIONS ALLOWED FOR CLOSURE =        1
                                     MAXIMUM INNER ITERATIONS ALLOWED FOR CLOSURE =      200
                                                    PRECONDITIONING TYPE SELECTED =    3
                                                           ACCELERATION PARAMETER =     1.0000    
                                       CONCENTRATION CHANGE CRITERION FOR CLOSURE =    0.10000E-05
                                       GCG CONCENTRATION CHANGE PRINTOUT INTERVAL =      999


                                   ++++++++++++++++++++++++++++++++++++++++++++++++++++++++++++++
                                                       STRESS PERIOD NO.  001
                                   ++++++++++++++++++++++++++++++++++++++++++++++++++++++++++++++


 LENGTH OF CURRENT STRESS PERIOD =   5.000000    
 NUMBER OF TIME STEPS FOR CURRENT STRESS PERIOD =    1
 TIME STEP MULTIPLIER USED IN FLOW SOLUTION =   1.000000    

 ***Type of Transport Simulation is TRANSIENT

 USER-SPECIFIED TRANSPORT STEPSIZE =   0.000000    YR  
 MAXIMUM NUMBER OF TRANSPORT STEPS ALLOWED  IN ONE FLOW TIME STEP =     10000
 MULTIPLIER FOR SUCCESSIVE TRANSPORT STEPS  [USED IN IMPLICIT SCHEMES] =     1.000
 MAXIMUM TRANSPORT STEP SIZE  [USED IN IMPLICIT SCHEMES] =   0.000000    YR  

 CONCENTRATION OF RECHARGE FLUXES REUSED FROM LAST STRESS PERIOD

       NO    LAYER   ROW   COLUMN   CONCENTRATION       TYPE            COMPONENT
       1       1       1       9       1.000000         CONSTANT CONC.      1
       2       1       1      10       1.000000         CONSTANT CONC.      1
       3       1       1      11       1.000000         CONSTANT CONC.      1
       4       1       1      12       1.000000         CONSTANT CONC.      1
       5       1       1      13       1.000000         CONSTANT CONC.      1
       6       1       1      14       1.000000         CONSTANT CONC.      1
       7       1       1      15       1.000000         CONSTANT CONC.      1
       8       1       1      16       1.000000         CONSTANT CONC.      1


                                          ================================================
                                                         TIME STEP NO.  001
                                          ================================================

 FROM TIME =   0.0000     TO    5.0000    


                    "THKSAT          " FLOW TERMS FOR TIME STEP  1, STRESS PERIOD  1 READ UNFORMATTED ON UNIT 10
                    --------------------------------------------------------------------------------------------

                    "QXX             " FLOW TERMS FOR TIME STEP  1, STRESS PERIOD  1 READ UNFORMATTED ON UNIT 10
                    --------------------------------------------------------------------------------------------

                    "QZZ             " FLOW TERMS FOR TIME STEP  1, STRESS PERIOD  1 READ UNFORMATTED ON UNIT 10
                    --------------------------------------------------------------------------------------------

 MAXIMUM STEPSIZE DURING WHICH ANY PARTICLE CANNOT MOVE MORE THAN ONE CELL
 = 0.4292E-01(WHEN MIN. R.F.=1)  AT K=   4, I=   1, J=  35

 MAXIMUM STEPSIZE WHICH MEETS STABILITY CRITERION OF THE ADVECTION TERM
 (FOR PURE FINITE-DIFFERENCE OPTION, MIXELM=0) 
 = 0.2009E-01(WHEN MIN. R.F.=1)  AT K=   4, I=   1, J=  35

                    "CNH             " FLOW TERMS FOR TIME STEP  1, STRESS PERIOD  1 READ UNFORMATTED ON UNIT 10
                    --------------------------------------------------------------------------------------------

                    "RCH             " FLOW TERMS FOR TIME STEP  1, STRESS PERIOD  1 READ UNFORMATTED ON UNIT 10
                    --------------------------------------------------------------------------------------------


 TOTAL NUMBER OF POINT SOURCES/SINKS PRESENT IN THE FLOW MODEL =    30

 MAXIMUM STEPSIZE WHICH MEETS STABILITY CRITERION OF THE SINK & SOURCE TERM
 = 0.2304E-01(WHEN MIN. R.F.=1)  AT K=   4, I=   1, J=  35

 MAXIMUM STEPSIZE WHICH MEETS STABILITY CRITERION OF THE DISPERSION TERM
 = 0.7048E-01(WHEN MIN. R.F.=1)  AT K=  20, I=   1, J=  37


     1 CALLS TO GCG PACKAGE FOR TRANSPORT TIME STEP   1 IN FLOW TIME STEP   1 STRESS PERIOD   1
     4 TOTAL ITERATIONS
     1 CALLS TO GCG PACKAGE FOR TRANSPORT TIME STEP   2 IN FLOW TIME STEP   1 STRESS PERIOD   1
     5 TOTAL ITERATIONS
     1 CALLS TO GCG PACKAGE FOR TRANSPORT TIME STEP   3 IN FLOW TIME STEP   1 STRESS PERIOD   1
     5 TOTAL ITERATIONS
     1 CALLS TO GCG PACKAGE FOR TRANSPORT TIME STEP   4 IN FLOW TIME STEP   1 STRESS PERIOD   1
     5 TOTAL ITERATIONS
     1 CALLS TO GCG PACKAGE FOR TRANSPORT TIME STEP   5 IN FLOW TIME STEP   1 STRESS PERIOD   1
     5 TOTAL ITERATIONS
     1 CALLS TO GCG PACKAGE FOR TRANSPORT TIME STEP   6 IN FLOW TIME STEP   1 STRESS PERIOD   1
     5 TOTAL ITERATIONS
     1 CALLS TO GCG PACKAGE FOR TRANSPORT TIME STEP   7 IN FLOW TIME STEP   1 STRESS PERIOD   1
     5 TOTAL ITERATIONS
     1 CALLS TO GCG PACKAGE FOR TRANSPORT TIME STEP   8 IN FLOW TIME STEP   1 STRESS PERIOD   1
     5 TOTAL ITERATIONS
     1 CALLS TO GCG PACKAGE FOR TRANSPORT TIME STEP   9 IN FLOW TIME STEP   1 STRESS PERIOD   1
     5 TOTAL ITERATIONS
     1 CALLS TO GCG PACKAGE FOR TRANSPORT TIME STEP  10 IN FLOW TIME STEP   1 STRESS PERIOD   1
     5 TOTAL ITERATIONS
     1 CALLS TO GCG PACKAGE FOR TRANSPORT TIME STEP  11 IN FLOW TIME STEP   1 STRESS PERIOD   1
     5 TOTAL ITERATIONS
     1 CALLS TO GCG PACKAGE FOR TRANSPORT TIME STEP  12 IN FLOW TIME STEP   1 STRESS PERIOD   1
     5 TOTAL ITERATIONS
     1 CALLS TO GCG PACKAGE FOR TRANSPORT TIME STEP  13 IN FLOW TIME STEP   1 STRESS PERIOD   1
     5 TOTAL ITERATIONS
     1 CALLS TO GCG PACKAGE FOR TRANSPORT TIME STEP  14 IN FLOW TIME STEP   1 STRESS PERIOD   1
     5 TOTAL ITERATIONS
     1 CALLS TO GCG PACKAGE FOR TRANSPORT TIME STEP  15 IN FLOW TIME STEP   1 STRESS PERIOD   1
     5 TOTAL ITERATIONS
     1 CALLS TO GCG PACKAGE FOR TRANSPORT TIME STEP  16 IN FLOW TIME STEP   1 STRESS PERIOD   1
     5 TOTAL ITERATIONS
     1 CALLS TO GCG PACKAGE FOR TRANSPORT TIME STEP  17 IN FLOW TIME STEP   1 STRESS PERIOD   1
     5 TOTAL ITERATIONS
     1 CALLS TO GCG PACKAGE FOR TRANSPORT TIME STEP  18 IN FLOW TIME STEP   1 STRESS PERIOD   1
     5 TOTAL ITERATIONS
     1 CALLS TO GCG PACKAGE FOR TRANSPORT TIME STEP  19 IN FLOW TIME STEP   1 STRESS PERIOD   1
     5 TOTAL ITERATIONS
     1 CALLS TO GCG PACKAGE FOR TRANSPORT TIME STEP  20 IN FLOW TIME STEP   1 STRESS PERIOD   1
     5 TOTAL ITERATIONS
     1 CALLS TO GCG PACKAGE FOR TRANSPORT TIME STEP  21 IN FLOW TIME STEP   1 STRESS PERIOD   1
     5 TOTAL ITERATIONS
     1 CALLS TO GCG PACKAGE FOR TRANSPORT TIME STEP  22 IN FLOW TIME STEP   1 STRESS PERIOD   1
     5 TOTAL ITERATIONS
     1 CALLS TO GCG PACKAGE FOR TRANSPORT TIME STEP  23 IN FLOW TIME STEP   1 STRESS PERIOD   1
     6 TOTAL ITERATIONS
     1 CALLS TO GCG PACKAGE FOR TRANSPORT TIME STEP  24 IN FLOW TIME STEP   1 STRESS PERIOD   1
     6 TOTAL ITERATIONS
     1 CALLS TO GCG PACKAGE FOR TRANSPORT TIME STEP  25 IN FLOW TIME STEP   1 STRESS PERIOD   1
     5 TOTAL ITERATIONS
     1 CALLS TO GCG PACKAGE FOR TRANSPORT TIME STEP  26 IN FLOW TIME STEP   1 STRESS PERIOD   1
     5 TOTAL ITERATIONS
     1 CALLS TO GCG PACKAGE FOR TRANSPORT TIME STEP  27 IN FLOW TIME STEP   1 STRESS PERIOD   1
     5 TOTAL ITERATIONS
     1 CALLS TO GCG PACKAGE FOR TRANSPORT TIME STEP  28 IN FLOW TIME STEP   1 STRESS PERIOD   1
     6 TOTAL ITERATIONS
     1 CALLS TO GCG PACKAGE FOR TRANSPORT TIME STEP  29 IN FLOW TIME STEP   1 STRESS PERIOD   1
     5 TOTAL ITERATIONS
     1 CALLS TO GCG PACKAGE FOR TRANSPORT TIME STEP  30 IN FLOW TIME STEP   1 STRESS PERIOD   1
     5 TOTAL ITERATIONS
     1 CALLS TO GCG PACKAGE FOR TRANSPORT TIME STEP  31 IN FLOW TIME STEP   1 STRESS PERIOD   1
     5 TOTAL ITERATIONS
     1 CALLS TO GCG PACKAGE FOR TRANSPORT TIME STEP  32 IN FLOW TIME STEP   1 STRESS PERIOD   1
     5 TOTAL ITERATIONS
     1 CALLS TO GCG PACKAGE FOR TRANSPORT TIME STEP  33 IN FLOW TIME STEP   1 STRESS PERIOD   1
     5 TOTAL ITERATIONS
     1 CALLS TO GCG PACKAGE FOR TRANSPORT TIME STEP  34 IN FLOW TIME STEP   1 STRESS PERIOD   1
     5 TOTAL ITERATIONS
     1 CALLS TO GCG PACKAGE FOR TRANSPORT TIME STEP  35 IN FLOW TIME STEP   1 STRESS PERIOD   1
     5 TOTAL ITERATIONS
     1 CALLS TO GCG PACKAGE FOR TRANSPORT TIME STEP  36 IN FLOW TIME STEP   1 STRESS PERIOD   1
     6 TOTAL ITERATIONS
     1 CALLS TO GCG PACKAGE FOR TRANSPORT TIME STEP  37 IN FLOW TIME STEP   1 STRESS PERIOD   1
     5 TOTAL ITERATIONS
     1 CALLS TO GCG PACKAGE FOR TRANSPORT TIME STEP  38 IN FLOW TIME STEP   1 STRESS PERIOD   1
     5 TOTAL ITERATIONS
     1 CALLS TO GCG PACKAGE FOR TRANSPORT TIME STEP  39 IN FLOW TIME STEP   1 STRESS PERIOD   1
     6 TOTAL ITERATIONS
     1 CALLS TO GCG PACKAGE FOR TRANSPORT TIME STEP  40 IN FLOW TIME STEP   1 STRESS PERIOD   1
     5 TOTAL ITERATIONS
     1 CALLS TO GCG PACKAGE FOR TRANSPORT TIME STEP  41 IN FLOW TIME STEP   1 STRESS PERIOD   1
     5 TOTAL ITERATIONS
     1 CALLS TO GCG PACKAGE FOR TRANSPORT TIME STEP  42 IN FLOW TIME STEP   1 STRESS PERIOD   1
     5 TOTAL ITERATIONS
     1 CALLS TO GCG PACKAGE FOR TRANSPORT TIME STEP  43 IN FLOW TIME STEP   1 STRESS PERIOD   1
     5 TOTAL ITERATIONS
     1 CALLS TO GCG PACKAGE FOR TRANSPORT TIME STEP  44 IN FLOW TIME STEP   1 STRESS PERIOD   1
     5 TOTAL ITERATIONS
     1 CALLS TO GCG PACKAGE FOR TRANSPORT TIME STEP  45 IN FLOW TIME STEP   1 STRESS PERIOD   1
     5 TOTAL ITERATIONS