# File generated by Flopy version 3.5.0.dev0 on 10/30/2023 at 09:14:14.
BEGIN options
  NEWTON  UNDER_RELAXATION
END options

BEGIN packages
  DIS6  gwf_mst03.nc  dis
  IC6  gwf_mst03.ic  ic
  NPF6  gwf_mst03.nc  npf
  STO6  gwf_mst03.sto  sto
  WEL6  gwf_mst03.nc  wel-1
  OC6  gwf_mst03.oc  oc
END packages

