# File generated by Flopy version 3.5.0.dev0 on 10/30/2023 at 09:14:14.
BEGIN options
END options

BEGIN griddata
  iconvert
    CONSTANT  1
  ss
    CONSTANT  1.00000000E-10
  sy
    CONSTANT       0.10000000
END griddata

BEGIN period  1
  TRANSIENT
END period  1

