# File generated by Flopy version 3.5.0.dev0 on 10/30/2023 at 09:14:14.
BEGIN options
  SCHEME  upstream
END options

