# File generated by Flopy version 3.5.0.dev0 on 10/30/2023 at 09:14:14.
BEGIN options
END options

BEGIN packages
  DIS6  gwt_mst03.dis  dis
  IC6  gwt_mst03.ic  ic
  ADV6  gwt_mst03.adv  adv
  MST6  gwt_mst03.mst  mst
  SSM6  gwt_mst03.ssm  ssm
  OC6  gwt_mst03.oc  oc
END packages

