# LPF for MODFLOW, generated by Flopy.
        53    -1E+30         0  
         1
         0
   1.000000E+00
         0
         0
INTERNAL               1     (FREE) -1 #hk                            
   1.451900E-04   1.413300E-04   1.443000E-04   1.109500E-04   1.127000E-04   1.187400E-04   1.053400E-04   1.148600E-04   1.214600E-04   1.040600E-04   9.250000E-05   9.537100E-05   9.097300E-05   1.163100E-04   1.123000E-04   1.060600E-04   1.138000E-04   1.145300E-04   1.120900E-04   1.107200E-04
   1.487200E-04   1.480100E-04   1.045100E-04   1.158300E-04   1.054900E-04   1.108600E-04   1.058300E-04   1.131300E-04   1.191700E-04   9.856800E-05   9.195300E-05   1.008000E-04   9.237700E-05   1.049000E-04   1.192500E-04   1.075700E-04   8.161600E-05   1.138900E-04   1.171200E-04   1.017800E-04
   1.411600E-04   1.590800E-04   1.089000E-04   1.126900E-04   1.155500E-04   1.107500E-04   1.094100E-04   1.159200E-04   1.038200E-04   8.943600E-05   8.644600E-05   8.758400E-05   8.587700E-05   1.191600E-04   1.053200E-04   1.137000E-04   8.232300E-05   1.066600E-04   1.099600E-04   9.953500E-05
   1.074600E-04   9.376200E-05   1.155400E-04   1.184300E-04   1.129600E-04   1.136700E-04   1.077700E-04   1.078300E-04   1.103700E-04   9.027400E-05   8.535600E-05   9.450200E-05   9.343500E-05   1.008200E-04   9.859800E-05   8.194000E-05   8.504100E-05   1.134800E-04   1.061200E-04   1.076000E-04
   1.080100E-04   9.592500E-05   1.110100E-04   1.134100E-04   1.217200E-04   1.119200E-04   8.896900E-05   9.167200E-05   9.653800E-05   8.819600E-05   9.590800E-05   9.576100E-05   8.828300E-05   1.095800E-04   1.049000E-04   7.692200E-05   8.729700E-05   1.005500E-04   1.137900E-04   1.002100E-04
   1.105400E-04   8.309500E-05   9.852600E-05   9.255700E-05   8.149500E-05   9.177700E-05   8.795600E-05   9.196900E-05   9.431200E-05   8.651200E-05   8.791400E-05   9.153000E-05   9.460900E-05   1.103600E-04   9.890900E-05   8.679700E-05   9.433800E-05   1.096400E-04   1.088200E-04   1.012300E-04
   1.129900E-04   9.228600E-05   9.285100E-05   8.165600E-05   7.937300E-05   8.935300E-05   8.736500E-05   8.727900E-05   9.078900E-05   9.264500E-05   7.198400E-05   8.092800E-05   8.814500E-05   8.797900E-05   8.067300E-05   9.443300E-05   9.594200E-05   8.933500E-05   8.862300E-05   1.147600E-04
   1.090400E-04   8.993400E-05   9.423200E-05   1.136100E-04   1.092500E-04   1.087300E-04   1.125000E-04   8.001100E-05   8.695500E-05   8.639500E-05   6.743200E-05   8.438800E-05   9.728300E-05   9.113500E-05   9.168700E-05   9.960900E-05   8.105300E-05   8.430000E-05   9.775600E-05   1.083500E-04
   1.182500E-04   8.360200E-05   8.839100E-05   1.179000E-04   0.000000E+00   0.000000E+00   0.000000E+00   1.081600E-04   9.024900E-05   8.467800E-05   6.433500E-05   8.604600E-05   8.616800E-05   9.063200E-05   9.114200E-05   8.944600E-05   8.433300E-05   9.726000E-05   9.065100E-05   1.173200E-04
   1.079400E-04   9.484600E-05   9.123000E-05   1.082400E-04   0.000000E+00   0.000000E+00   0.000000E+00   0.000000E+00   1.161800E-04   8.462100E-05   7.467900E-05   8.488100E-05   8.291700E-05   8.702500E-05   9.189400E-05   9.344400E-05   1.004100E-04   8.888400E-05   9.400500E-05   1.140600E-04
   1.168200E-04   8.432500E-05   8.423800E-05   1.014300E-04   0.000000E+00   0.000000E+00   0.000000E+00   0.000000E+00   1.041800E-04   9.084200E-05   6.082200E-05   6.394400E-05   6.905400E-05   8.796700E-05   9.215800E-05   8.029000E-05   9.314800E-05   7.712000E-05   9.282100E-05   8.364900E-05
   1.172000E-04   9.552200E-05   8.870700E-05   1.009000E-04   0.000000E+00   0.000000E+00   0.000000E+00   0.000000E+00   1.090400E-04   9.002300E-05   7.349200E-05   7.544500E-05   6.970300E-05   8.058200E-05   9.302600E-05   6.241100E-05   1.044100E-04   8.163200E-05   9.196200E-05   1.032600E-04
   1.071100E-04   9.675600E-05   8.616300E-05   1.072500E-04   0.000000E+00   0.000000E+00   0.000000E+00   0.000000E+00   1.107900E-04   8.997100E-05   6.113100E-05   9.262400E-05   8.342200E-05   9.485900E-05   9.132300E-05   8.877900E-05   8.489600E-05   9.169800E-05   8.082100E-05   8.548400E-05
   1.085000E-04   8.775200E-05   8.136200E-05   1.182000E-04   0.000000E+00   0.000000E+00   0.000000E+00   0.000000E+00   1.037900E-04   8.768600E-05   7.035300E-05   6.892100E-05   6.602000E-05   9.145800E-05   9.982900E-05   7.852100E-05   9.710600E-05   8.692900E-05   9.946600E-05   8.696500E-05
   1.101100E-04   8.580700E-05   8.716800E-05   1.205900E-04   0.000000E+00   0.000000E+00   0.000000E+00   0.000000E+00   8.861800E-05   8.475000E-05   5.610600E-05   7.522200E-05   7.162700E-05   6.963500E-05   6.969800E-05   7.319000E-05   7.001600E-05   8.296900E-05   8.891500E-05   1.178800E-04
   1.033600E-04   9.192500E-05   9.246800E-05   1.052800E-04   0.000000E+00   0.000000E+00   0.000000E+00   0.000000E+00   8.841500E-05   6.729800E-05   4.746200E-05   6.572600E-05   7.278600E-05   6.995100E-05   7.193900E-05   6.782600E-05   7.687500E-05   9.453800E-05   9.370300E-05   1.053800E-04
   1.153800E-04   9.152600E-05   9.165700E-05   1.122900E-04   0.000000E+00   0.000000E+00   0.000000E+00   0.000000E+00   8.059100E-05   7.316400E-05   4.865700E-05   7.540700E-05   7.152100E-05   7.249200E-05   6.722500E-05   6.256800E-05   6.533700E-05   8.957000E-05   9.037800E-05   1.184600E-04
   1.089000E-04   8.383200E-05   9.529100E-05   1.030100E-04   0.000000E+00   0.000000E+00   0.000000E+00   0.000000E+00   8.254900E-05   7.732500E-05   5.262500E-05   5.683300E-05   7.304700E-05   7.184200E-05   7.369400E-05   7.673300E-05   7.268300E-05   8.574400E-05   8.907500E-05   1.126300E-04
   1.091600E-04   9.297100E-05   9.472900E-05   1.038700E-04   0.000000E+00   0.000000E+00   0.000000E+00   0.000000E+00   8.159300E-05   6.488900E-05   5.453800E-05   4.062900E-05   5.975300E-05   7.071300E-05   7.547900E-05   7.596000E-05   6.799800E-05   8.810100E-05   1.007100E-04   1.114400E-04
   1.097100E-04   9.215600E-05   8.378300E-05   1.114400E-04   0.000000E+00   0.000000E+00   0.000000E+00   0.000000E+00   9.784600E-05   7.421800E-05   4.777100E-05   4.497000E-05   5.923900E-05   7.011800E-05   6.993900E-05   7.591600E-05   6.892700E-05   8.780200E-05   8.722500E-05   1.119800E-04
   1.156300E-04   8.428000E-05   9.133400E-05   1.220500E-04   0.000000E+00   0.000000E+00   0.000000E+00   0.000000E+00   8.971000E-05   6.953500E-05   4.997800E-05   5.199100E-05   3.821700E-05   7.912700E-05   6.997100E-05   6.892100E-05   6.721700E-05   8.028300E-05   8.285400E-05   1.089300E-04
   1.106700E-04   9.077900E-05   9.632700E-05   1.164700E-04   0.000000E+00   0.000000E+00   1.131300E-04   1.104200E-04   8.908900E-05   7.110200E-05   5.124000E-05   4.128800E-05   4.867700E-05   6.885600E-05   7.250300E-05   6.600300E-05   7.181100E-05   9.430800E-05   8.820100E-05   1.032600E-04
   1.063800E-04   9.112300E-05   8.281500E-05   1.149400E-04   1.090900E-04   0.000000E+00   1.134100E-04   8.392900E-05   8.636700E-05   6.733600E-05   4.779500E-05   4.519900E-05   3.900600E-05   7.661700E-05   7.080100E-05   7.365700E-05   5.339000E-05   7.760000E-05   8.680200E-05   1.094800E-04
   1.135400E-04   9.536100E-05   8.728700E-05   8.839500E-05   1.027800E-04   1.100000E-04   9.737600E-05   8.471700E-05   9.917100E-05   7.211700E-05   5.065100E-05   5.252000E-05   4.698700E-05   7.279600E-05   7.436600E-05   5.157700E-05   7.559500E-05   6.935900E-05   9.513500E-05   8.924600E-05
   1.132400E-04   9.206800E-05   9.169600E-05   9.264300E-05   9.184700E-05   9.092200E-05   8.916300E-05   8.314200E-05   6.517200E-05   7.733400E-05   5.268000E-05   5.142300E-05   4.156300E-05   6.737100E-05   7.638300E-05   4.763900E-05   7.110400E-05   7.581200E-05   9.354000E-05   9.409600E-05
   1.142200E-04   9.124800E-05   9.591900E-05   6.735600E-05   9.117700E-05   8.451400E-05   8.923100E-05   9.496200E-05   6.948600E-05   7.001700E-05   4.812700E-05   4.947400E-05   4.760100E-05   7.764600E-05   7.547100E-05   4.800500E-05   7.729400E-05   7.897800E-05   9.441100E-05   8.844800E-05
   1.175000E-04   8.378900E-05   9.909000E-05   9.166700E-05   6.639500E-05   8.745200E-05   8.990700E-05   6.506900E-05   6.874600E-05   5.219600E-05   1.718800E-05   5.354700E-05   4.613000E-05   4.905000E-05   4.985200E-05   4.518600E-05   6.188000E-05   6.267500E-05   7.298100E-05   9.491200E-05
   1.012100E-04   1.074900E-04   8.386500E-05   8.873200E-05   9.231800E-05   8.303800E-05   6.106800E-05   5.477100E-05   6.896300E-05   3.949300E-05   3.997100E-05   4.882700E-05   5.058900E-05   4.683300E-05   4.899500E-05   4.529800E-05   5.220200E-05   7.028000E-05   7.185100E-05   7.905800E-05
   1.047900E-04   1.104800E-04   9.092900E-05   9.043800E-05   9.668700E-05   7.354400E-05   5.655800E-05   1.329100E-05   6.956900E-05   6.109700E-05   3.251800E-05   5.442700E-05   5.224300E-05   4.288100E-05   5.427500E-05   2.692700E-05   4.677600E-05   4.850800E-05   7.386300E-05   7.700700E-05
   1.023100E-04   1.166500E-04   9.741400E-05   9.781800E-05   9.990500E-05   7.611800E-05   1.590300E-05   1.863200E-05   1.560500E-05   3.311200E-05   2.492000E-05   4.982600E-05   5.447100E-05   4.701600E-05   5.078900E-05   2.718600E-05   3.754400E-05   5.032300E-05   5.174200E-05   6.036700E-05
   1.108100E-04   8.525200E-05   8.515900E-05   9.217300E-05   7.256400E-05   3.921400E-05   2.958800E-05   1.967900E-05   3.287100E-05   2.472700E-05   3.127600E-05   4.833300E-05   5.499900E-05   5.000900E-05   3.335200E-05   1.619800E-05   2.646800E-05   2.091300E-05   4.628200E-05   4.825200E-05
   1.092700E-04   8.622100E-05   8.704600E-05   9.061300E-05   9.616700E-05   6.629600E-05   8.710500E-06   2.771000E-05   2.869200E-05   3.579000E-05   2.665200E-05   3.390600E-05   5.481900E-05   5.342700E-05   1.836800E-05   1.858100E-05   2.446000E-05   2.174300E-05   5.184500E-05   5.756000E-05
   0.000000E+00   9.116800E-05   8.831100E-05   8.966200E-05   8.818800E-05   8.599300E-05   6.895800E-05   4.775700E-05   4.015500E-06   2.653500E-05   2.461500E-05   2.008800E-05   1.846400E-05   5.997800E-05   5.032200E-05   4.519000E-05   2.580500E-05   4.569900E-05   4.771100E-05   7.500000E-05
   0.000000E+00   0.000000E+00   8.142000E-05   8.953700E-05   9.762900E-05   6.555100E-05   7.129400E-05   5.272200E-05   3.938800E-05   3.816100E-05   2.490600E-05   2.536700E-05   1.774000E-05   5.118900E-05   4.384100E-05   5.090000E-05   4.257500E-05   5.736600E-05   6.645300E-05   9.043300E-05
   0.000000E+00   0.000000E+00   0.000000E+00   6.618300E-05   7.644600E-05   6.464400E-05   6.097200E-05   7.739200E-05   4.015300E-05   2.630300E-05   2.220600E-05   1.437600E-05   3.881700E-05   4.578400E-05   4.890400E-05   5.395400E-05   4.955900E-05   4.641600E-05   7.674400E-05   8.853700E-05
   0.000000E+00   0.000000E+00   0.000000E+00   0.000000E+00   7.448700E-05   7.416700E-05   7.127200E-05   5.236700E-05   4.885700E-05   1.588700E-05   2.545900E-05   2.113200E-05   2.691900E-05   5.374600E-05   4.968200E-05   4.682100E-05   4.712100E-05   6.673900E-05   1.013400E-04   0.000000E+00
   0.000000E+00   0.000000E+00   0.000000E+00   0.000000E+00   8.720300E-05   7.174400E-05   6.473700E-05   5.413600E-05   5.136000E-05   2.588400E-05   2.627700E-05   2.969900E-05   2.033100E-05   5.165300E-05   4.094100E-05   5.095200E-05   7.433700E-05   7.112000E-05   8.805000E-05   0.000000E+00
   0.000000E+00   0.000000E+00   0.000000E+00   0.000000E+00   0.000000E+00   7.443300E-05   6.898000E-05   4.781500E-05   6.218100E-05   1.590600E-05   2.039100E-05   2.718300E-05   1.726600E-05   2.083200E-05   2.854600E-05   5.453800E-05   5.074700E-05   6.309200E-05   0.000000E+00   0.000000E+00
   0.000000E+00   0.000000E+00   0.000000E+00   0.000000E+00   0.000000E+00   6.879400E-05   7.875300E-05   6.534100E-05   5.258100E-05   2.331500E-05   2.439200E-05   2.925000E-05   2.752500E-05   1.796800E-05   3.266100E-05   4.243600E-05   6.342500E-05   0.000000E+00   0.000000E+00   0.000000E+00
   0.000000E+00   0.000000E+00   0.000000E+00   0.000000E+00   0.000000E+00   9.475100E-05   5.315100E-05   5.108700E-05   2.639000E-05   2.862500E-05   2.388600E-05   1.610000E-05   1.789500E-05   1.518800E-05   4.616300E-05   0.000000E+00   0.000000E+00   0.000000E+00   0.000000E+00   0.000000E+00
INTERNAL               1     (FREE) -1 #vka                           
   1.451900E-04   1.413300E-04   1.443000E-04   1.109500E-04   1.127000E-04   1.187400E-04   1.053400E-04   1.148600E-04   1.214600E-04   1.040600E-04   9.250000E-05   9.537100E-05   9.097300E-05   1.163100E-04   1.123000E-04   1.060600E-04   1.138000E-04   1.145300E-04   1.120900E-04   1.107200E-04
   1.487200E-04   1.480100E-04   1.045100E-04   1.158300E-04   1.054900E-04   1.108600E-04   1.058300E-04   1.131300E-04   1.191700E-04   9.856800E-05   9.195300E-05   1.008000E-04   9.237700E-05   1.049000E-04   1.192500E-04   1.075700E-04   8.161600E-05   1.138900E-04   1.171200E-04   1.017800E-04
   1.411600E-04   1.590800E-04   1.089000E-04   1.126900E-04   1.155500E-04   1.107500E-04   1.094100E-04   1.159200E-04   1.038200E-04   8.943600E-05   8.644600E-05   8.758400E-05   8.587700E-05   1.191600E-04   1.053200E-04   1.137000E-04   8.232300E-05   1.066600E-04   1.099600E-04   9.953500E-05
   1.074600E-04   9.376200E-05   1.155400E-04   1.184300E-04   1.129600E-04   1.136700E-04   1.077700E-04   1.078300E-04   1.103700E-04   9.027400E-05   8.535600E-05   9.450200E-05   9.343500E-05   1.008200E-04   9.859800E-05   8.194000E-05   8.504100E-05   1.134800E-04   1.061200E-04   1.076000E-04
   1.080100E-04   9.592500E-05   1.110100E-04   1.134100E-04   1.217200E-04   1.119200E-04   8.896900E-05   9.167200E-05   9.653800E-05   8.819600E-05   9.590800E-05   9.576100E-05   8.828300E-05   1.095800E-04   1.049000E-04   7.692200E-05   8.729700E-05   1.005500E-04   1.137900E-04   1.002100E-04
   1.105400E-04   8.309500E-05   9.852600E-05   9.255700E-05   8.149500E-05   9.177700E-05   8.795600E-05   9.196900E-05   9.431200E-05   8.651200E-05   8.791400E-05   9.153000E-05   9.460900E-05   1.103600E-04   9.890900E-05   8.679700E-05   9.433800E-05   1.096400E-04   1.088200E-04   1.012300E-04
   1.129900E-04   9.228600E-05   9.285100E-05   8.165600E-05   7.937300E-05   8.935300E-05   8.736500E-05   8.727900E-05   9.078900E-05   9.264500E-05   7.198400E-05   8.092800E-05   8.814500E-05   8.797900E-05   8.067300E-05   9.443300E-05   9.594200E-05   8.933500E-05   8.862300E-05   1.147600E-04
   1.090400E-04   8.993400E-05   9.423200E-05   1.136100E-04   1.092500E-04   1.087300E-04   1.125000E-04   8.001100E-05   8.695500E-05   8.639500E-05   6.743200E-05   8.438800E-05   9.728300E-05   9.113500E-05   9.168700E-05   9.960900E-05   8.105300E-05   8.430000E-05   9.775600E-05   1.083500E-04
   1.182500E-04   8.360200E-05   8.839100E-05   1.179000E-04   0.000000E+00   0.000000E+00   0.000000E+00   1.081600E-04   9.024900E-05   8.467800E-05   6.433500E-05   8.604600E-05   8.616800E-05   9.063200E-05   9.114200E-05   8.944600E-05   8.433300E-05   9.726000E-05   9.065100E-05   1.173200E-04
   1.079400E-04   9.484600E-05   9.123000E-05   1.082400E-04   0.000000E+00   0.000000E+00   0.000000E+00   0.000000E+00   1.161800E-04   8.462100E-05   7.467900E-05   8.488100E-05   8.291700E-05   8.702500E-05   9.189400E-05   9.344400E-05   1.004100E-04   8.888400E-05   9.400500E-05   1.140600E-04
   1.168200E-04   8.432500E-05   8.423800E-05   1.014300E-04   0.000000E+00   0.000000E+00   0.000000E+00   0.000000E+00   1.041800E-04   9.084200E-05   6.082200E-05   6.394400E-05   6.905400E-05   8.796700E-05   9.215800E-05   8.029000E-05   9.314800E-05   7.712000E-05   9.282100E-05   8.364900E-05
   1.172000E-04   9.552200E-05   8.870700E-05   1.009000E-04   0.000000E+00   0.000000E+00   0.000000E+00   0.000000E+00   1.090400E-04   9.002300E-05   7.349200E-05   7.544500E-05   6.970300E-05   8.058200E-05   9.302600E-05   6.241100E-05   1.044100E-04   8.163200E-05   9.196200E-05   1.032600E-04
   1.071100E-04   9.675600E-05   8.616300E-05   1.072500E-04   0.000000E+00   0.000000E+00   0.000000E+00   0.000000E+00   1.107900E-04   8.997100E-05   6.113100E-05   9.262400E-05   8.342200E-05   9.485900E-05   9.132300E-05   8.877900E-05   8.489600E-05   9.169800E-05   8.082100E-05   8.548400E-05
   1.085000E-04   8.775200E-05   8.136200E-05   1.182000E-04   0.000000E+00   0.000000E+00   0.000000E+00   0.000000E+00   1.037900E-04   8.768600E-05   7.035300E-05   6.892100E-05   6.602000E-05   9.145800E-05   9.982900E-05   7.852100E-05   9.710600E-05   8.692900E-05   9.946600E-05   8.696500E-05
   1.101100E-04   8.580700E-05   8.716800E-05   1.205900E-04   0.000000E+00   0.000000E+00   0.000000E+00   0.000000E+00   8.861800E-05   8.475000E-05   5.610600E-05   7.522200E-05   7.162700E-05   6.963500E-05   6.969800E-05   7.319000E-05   7.001600E-05   8.296900E-05   8.891500E-05   1.178800E-04
   1.033600E-04   9.192500E-05   9.246800E-05   1.052800E-04   0.000000E+00   0.000000E+00   0.000000E+00   0.000000E+00   8.841500E-05   6.729800E-05   4.746200E-05   6.572600E-05   7.278600E-05   6.995100E-05   7.193900E-05   6.782600E-05   7.687500E-05   9.453800E-05   9.370300E-05   1.053800E-04
   1.153800E-04   9.152600E-05   9.165700E-05   1.122900E-04   0.000000E+00   0.000000E+00   0.000000E+00   0.000000E+00   8.059100E-05   7.316400E-05   4.865700E-05   7.540700E-05   7.152100E-05   7.249200E-05   6.722500E-05   6.256800E-05   6.533700E-05   8.957000E-05   9.037800E-05   1.184600E-04
   1.089000E-04   8.383200E-05   9.529100E-05   1.030100E-04   0.000000E+00   0.000000E+00   0.000000E+00   0.000000E+00   8.254900E-05   7.732500E-05   5.262500E-05   5.683300E-05   7.304700E-05   7.184200E-05   7.369400E-05   7.673300E-05   7.268300E-05   8.574400E-05   8.907500E-05   1.126300E-04
   1.091600E-04   9.297100E-05   9.472900E-05   1.038700E-04   0.000000E+00   0.000000E+00   0.000000E+00   0.000000E+00   8.159300E-05   6.488900E-05   5.453800E-05   4.062900E-05   5.975300E-05   7.071300E-05   7.547900E-05   7.596000E-05   6.799800E-05   8.810100E-05   1.007100E-04   1.114400E-04
   1.097100E-04   9.215600E-05   8.378300E-05   1.114400E-04   0.000000E+00   0.000000E+00   0.000000E+00   0.000000E+00   9.784600E-05   7.421800E-05   4.777100E-05   4.497000E-05   5.923900E-05   7.011800E-05   6.993900E-05   7.591600E-05   6.892700E-05   8.780200E-05   8.722500E-05   1.119800E-04
   1.156300E-04   8.428000E-05   9.133400E-05   1.220500E-04   0.000000E+00   0.000000E+00   0.000000E+00   0.000000E+00   8.971000E-05   6.953500E-05   4.997800E-05   5.199100E-05   3.821700E-05   7.912700E-05   6.997100E-05   6.892100E-05   6.721700E-05   8.028300E-05   8.285400E-05   1.089300E-04
   1.106700E-04   9.077900E-05   9.632700E-05   1.164700E-04   0.000000E+00   0.000000E+00   1.131300E-04   1.104200E-04   8.908900E-05   7.110200E-05   5.124000E-05   4.128800E-05   4.867700E-05   6.885600E-05   7.250300E-05   6.600300E-05   7.181100E-05   9.430800E-05   8.820100E-05   1.032600E-04
   1.063800E-04   9.112300E-05   8.281500E-05   1.149400E-04   1.090900E-04   0.000000E+00   1.134100E-04   8.392900E-05   8.636700E-05   6.733600E-05   4.779500E-05   4.519900E-05   3.900600E-05   7.661700E-05   7.080100E-05   7.365700E-05   5.339000E-05   7.760000E-05   8.680200E-05   1.094800E-04
   1.135400E-04   9.536100E-05   8.728700E-05   8.839500E-05   1.027800E-04   1.100000E-04   9.737600E-05   8.471700E-05   9.917100E-05   7.211700E-05   5.065100E-05   5.252000E-05   4.698700E-05   7.279600E-05   7.436600E-05   5.157700E-05   7.559500E-05   6.935900E-05   9.513500E-05   8.924600E-05
   1.132400E-04   9.206800E-05   9.169600E-05   9.264300E-05   9.184700E-05   9.092200E-05   8.916300E-05   8.314200E-05   6.517200E-05   7.733400E-05   5.268000E-05   5.142300E-05   4.156300E-05   6.737100E-05   7.638300E-05   4.763900E-05   7.110400E-05   7.581200E-05   9.354000E-05   9.409600E-05
   1.142200E-04   9.124800E-05   9.591900E-05   6.735600E-05   9.117700E-05   8.451400E-05   8.923100E-05   9.496200E-05   6.948600E-05   7.001700E-05   4.812700E-05   4.947400E-05   4.760100E-05   7.764600E-05   7.547100E-05   4.800500E-05   7.729400E-05   7.897800E-05   9.441100E-05   8.844800E-05
   1.175000E-04   8.378900E-05   9.909000E-05   9.166700E-05   6.639500E-05   8.745200E-05   8.990700E-05   6.506900E-05   6.874600E-05   5.219600E-05   1.718800E-05   5.354700E-05   4.613000E-05   4.905000E-05   4.985200E-05   4.518600E-05   6.188000E-05   6.267500E-05   7.298100E-05   9.491200E-05
   1.012100E-04   1.074900E-04   8.386500E-05   8.873200E-05   9.231800E-05   8.303800E-05   6.106800E-05   5.477100E-05   6.896300E-05   3.949300E-05   3.997100E-05   4.882700E-05   5.058900E-05   4.683300E-05   4.899500E-05   4.529800E-05   5.220200E-05   7.028000E-05   7.185100E-05   7.905800E-05
   1.047900E-04   1.104800E-04   9.092900E-05   9.043800E-05   9.668700E-05   7.354400E-05   5.655800E-05   1.329100E-05   6.956900E-05   6.109700E-05   3.251800E-05   5.442700E-05   5.224300E-05   4.288100E-05   5.427500E-05   2.692700E-05   4.677600E-05   4.850800E-05   7.386300E-05   7.700700E-05
   1.023100E-04   1.166500E-04   9.741400E-05   9.781800E-05   9.990500E-05   7.611800E-05   1.590300E-05   1.863200E-05   1.560500E-05   3.311200E-05   2.492000E-05   4.982600E-05   5.447100E-05   4.701600E-05   5.078900E-05   2.718600E-05   3.754400E-05   5.032300E-05   5.174200E-05   6.036700E-05
   1.108100E-04   8.525200E-05   8.515900E-05   9.217300E-05   7.256400E-05   3.921400E-05   2.958800E-05   1.967900E-05   3.287100E-05   2.472700E-05   3.127600E-05   4.833300E-05   5.499900E-05   5.000900E-05   3.335200E-05   1.619800E-05   2.646800E-05   2.091300E-05   4.628200E-05   4.825200E-05
   1.092700E-04   8.622100E-05   8.704600E-05   9.061300E-05   9.616700E-05   6.629600E-05   8.710500E-06   2.771000E-05   2.869200E-05   3.579000E-05   2.665200E-05   3.390600E-05   5.481900E-05   5.342700E-05   1.836800E-05   1.858100E-05   2.446000E-05   2.174300E-05   5.184500E-05   5.756000E-05
   0.000000E+00   9.116800E-05   8.831100E-05   8.966200E-05   8.818800E-05   8.599300E-05   6.895800E-05   4.775700E-05   4.015500E-06   2.653500E-05   2.461500E-05   2.008800E-05   1.846400E-05   5.997800E-05   5.032200E-05   4.519000E-05   2.580500E-05   4.569900E-05   4.771100E-05   7.500000E-05
   0.000000E+00   0.000000E+00   8.142000E-05   8.953700E-05   9.762900E-05   6.555100E-05   7.129400E-05   5.272200E-05   3.938800E-05   3.816100E-05   2.490600E-05   2.536700E-05   1.774000E-05   5.118900E-05   4.384100E-05   5.090000E-05   4.257500E-05   5.736600E-05   6.645300E-05   9.043300E-05
   0.000000E+00   0.000000E+00   0.000000E+00   6.618300E-05   7.644600E-05   6.464400E-05   6.097200E-05   7.739200E-05   4.015300E-05   2.630300E-05   2.220600E-05   1.437600E-05   3.881700E-05   4.578400E-05   4.890400E-05   5.395400E-05   4.955900E-05   4.641600E-05   7.674400E-05   8.853700E-05
   0.000000E+00   0.000000E+00   0.000000E+00   0.000000E+00   7.448700E-05   7.416700E-05   7.127200E-05   5.236700E-05   4.885700E-05   1.588700E-05   2.545900E-05   2.113200E-05   2.691900E-05   5.374600E-05   4.968200E-05   4.682100E-05   4.712100E-05   6.673900E-05   1.013400E-04   0.000000E+00
   0.000000E+00   0.000000E+00   0.000000E+00   0.000000E+00   8.720300E-05   7.174400E-05   6.473700E-05   5.413600E-05   5.136000E-05   2.588400E-05   2.627700E-05   2.969900E-05   2.033100E-05   5.165300E-05   4.094100E-05   5.095200E-05   7.433700E-05   7.112000E-05   8.805000E-05   0.000000E+00
   0.000000E+00   0.000000E+00   0.000000E+00   0.000000E+00   0.000000E+00   7.443300E-05   6.898000E-05   4.781500E-05   6.218100E-05   1.590600E-05   2.039100E-05   2.718300E-05   1.726600E-05   2.083200E-05   2.854600E-05   5.453800E-05   5.074700E-05   6.309200E-05   0.000000E+00   0.000000E+00
   0.000000E+00   0.000000E+00   0.000000E+00   0.000000E+00   0.000000E+00   6.879400E-05   7.875300E-05   6.534100E-05   5.258100E-05   2.331500E-05   2.439200E-05   2.925000E-05   2.752500E-05   1.796800E-05   3.266100E-05   4.243600E-05   6.342500E-05   0.000000E+00   0.000000E+00   0.000000E+00
   0.000000E+00   0.000000E+00   0.000000E+00   0.000000E+00   0.000000E+00   9.475100E-05   5.315100E-05   5.108700E-05   2.639000E-05   2.862500E-05   2.388600E-05   1.610000E-05   1.789500E-05   1.518800E-05   4.616300E-05   0.000000E+00   0.000000E+00   0.000000E+00   0.000000E+00   0.000000E+00
