# Basic package file for MODFLOW, generated by Flopy.
 FREE
INTERNAL               1    (20I10) -1 #ibound                        
         1         1         1         1         1         1         1         1         1         1         1         1         1         1         1         1         1         1         1         1
         1         1         1         1         1         1         1         1         1         1         1         1         1         1         1         1         1         1         1         1
         1         1         1         1         1         1         1         1         1         1         1         1         1         1         1         1         1         1         1         1
         1         1         1         1         1         1         1         1         1         1         1         1         1         1         1         1         1         1         1         1
         1         1         1         1         1         1         1         1         1         1         1         1         1         1         1         1         1         1         1         1
         1         1         1         1         1         1         1         1         1         1         1         1         1         1         1         1         1         1         1         1
         1         1         1         1         1         1         1         1         1         1         1         1         1         1         1         1         1         1         1         1
         1         1         1         1         1         1         1         1         1         1         1         1         1         1         1         1         1         1         1         1
         1         1         1         1         0         0         0         1         1         1         1         1         1         1         1         1         1         1         1         1
         1         1         1         1         0         0         0         0         1         1         1         1         1         1         1         1         1         1         1         1
         1         1         1         1         0         0         0         0         1         1         1         1         1         1         1         1         1         1         1         1
         1         1         1         1         0         0         0         0         1         1         1         1         1         1         1         1         1         1         1         1
         1         1         1         1         0         0         0         0         1         1         1         1         1         1         1         1         1         1         1         1
         1         1         1         1         0         0         0         0         1         1         1         1         1         1         1         1         1         1         1         1
         1         1         1         1         0         0         0         0         1         1         1         1         1         1         1         1         1         1         1         1
         1         1         1         1         0         0         0         0         1         1         1         1         1         1         1         1         1         1         1         1
         1         1         1         1         0         0         0         0         1         1         1         1         1         1         1         1         1         1         1         1
         1         1         1         1         0         0         0         0         1         1         1         1         1         1         1         1         1         1         1         1
         1         1         1         1         0         0         0         0         1         1         1         1         1         1         1         1         1         1         1         1
         1         1         1         1         0         0         0         0         1         1         1         1         1         1         1         1         1         1         1         1
         1         1         1         1         0         0         0         0         1         1         1         1         1         1         1         1         1         1         1         1
         1         1         1         1         0         0         1         1         1         1         1         1         1         1         1         1         1         1         1         1
         1         1         1         1         1         0         1         1         1         1         1         1         1         1         1         1         1         1         1         1
         1         1         1         1         1         1         1         1         1         1         1         1         1         1         1         1         1         1         1         1
         1         1         1         1         1         1         1         1         1         1         1         1         1         1         1         1         1         1         1         1
         1         1         1         1         1         1         1         1         1         1         1         1         1         1         1         1         1         1         1         1
         1         1         1         1         1         1         1         1         1         1         1         1         1         1         1         1         1         1         1         1
         1         1         1         1         1         1         1         1         1         1         1         1         1         1         1         1         1         1         1         1
         1         1         1         1         1         1         1         1         1         1         1         1         1         1         1         1         1         1         1         1
         1         1         1         1         1         1         1         1         1         1         1         1         1         1         1         1         1         1         1         1
         1         1         1         1         1         1         1         1         1         1         1         1         1         1         1         1         1         1         1         1
         1         1         1         1         1         1         1         1         1         1         1         1         1         1         1         1         1         1         1         1
         0         1         1         1         1         1         1         1         1         1         1         1         1         1         1         1         1         1         1         1
         0         0         1         1         1         1         1         1         1         1         1         1         1         1         1         1         1         1         1         1
         0         0         0         1         1         1         1         1         1         1         1         1         1         1         1         1         1         1         1         1
         0         0         0         0         1         1         1         1         1         1         1         1         1         1         1         1         1         1         1         0
         0         0         0         0         1         1         1         1         1         1         1         1         1         1         1         1         1         1         1         0
         0         0         0         0         0         1         1         1         1         1         1         1         1         1         1         1         1         1         0         0
         0         0         0         0         0         1         1         1         1         1         1         1         1         1         1         1         1         0         0         0
         0         0         0         0         0        -1        -1        -1        -1        -1        -1        -1        -1        -1        -1         0         0         0         0         0
            999
INTERNAL               1  (20E15.6) -1 #strt                          
   4.500000E+01   4.500000E+01   4.500000E+01   4.500000E+01   4.500000E+01   4.500000E+01   4.500000E+01   4.500000E+01   4.500000E+01   4.500000E+01   4.500000E+01   4.500000E+01   4.500000E+01   4.500000E+01   4.500000E+01   4.500000E+01   4.500000E+01   4.500000E+01   4.500000E+01   4.500000E+01
   4.500000E+01   4.500000E+01   4.500000E+01   4.500000E+01   4.500000E+01   4.500000E+01   4.500000E+01   4.500000E+01   4.500000E+01   4.500000E+01   4.500000E+01   4.500000E+01   4.500000E+01   4.500000E+01   4.500000E+01   4.500000E+01   4.500000E+01   4.500000E+01   4.500000E+01   4.500000E+01
   4.500000E+01   4.500000E+01   4.500000E+01   4.500000E+01   4.500000E+01   4.500000E+01   4.500000E+01   4.500000E+01   4.500000E+01   4.500000E+01   4.500000E+01   4.500000E+01   4.500000E+01   4.500000E+01   4.500000E+01   4.500000E+01   4.500000E+01   4.500000E+01   4.500000E+01   4.500000E+01
   4.500000E+01   4.500000E+01   4.500000E+01   4.500000E+01   4.500000E+01   4.500000E+01   4.500000E+01   4.500000E+01   4.500000E+01   4.500000E+01   4.500000E+01   4.500000E+01   4.500000E+01   4.500000E+01   4.500000E+01   4.500000E+01   4.500000E+01   4.500000E+01   4.500000E+01   4.500000E+01
   4.500000E+01   4.500000E+01   4.500000E+01   4.500000E+01   4.500000E+01   4.500000E+01   4.500000E+01   4.500000E+01   4.500000E+01   4.500000E+01   4.500000E+01   4.500000E+01   4.500000E+01   4.500000E+01   4.500000E+01   4.500000E+01   4.500000E+01   4.500000E+01   4.500000E+01   4.500000E+01
   4.500000E+01   4.500000E+01   4.500000E+01   4.500000E+01   4.500000E+01   4.500000E+01   4.500000E+01   4.500000E+01   4.500000E+01   4.500000E+01   4.500000E+01   4.500000E+01   4.500000E+01   4.500000E+01   4.500000E+01   4.500000E+01   4.500000E+01   4.500000E+01   4.500000E+01   4.500000E+01
   4.500000E+01   4.500000E+01   4.500000E+01   4.500000E+01   4.500000E+01   4.500000E+01   4.500000E+01   4.500000E+01   4.500000E+01   4.500000E+01   4.500000E+01   4.500000E+01   4.500000E+01   4.500000E+01   4.500000E+01   4.500000E+01   4.500000E+01   4.500000E+01   4.500000E+01   4.500000E+01
   4.500000E+01   4.500000E+01   4.500000E+01   4.500000E+01   4.500000E+01   4.500000E+01   4.500000E+01   4.500000E+01   4.500000E+01   4.500000E+01   4.500000E+01   4.500000E+01   4.500000E+01   4.500000E+01   4.500000E+01   4.500000E+01   4.500000E+01   4.500000E+01   4.500000E+01   4.500000E+01
   4.500000E+01   4.500000E+01   4.500000E+01   4.500000E+01   4.500000E+01   4.500000E+01   4.500000E+01   4.500000E+01   4.500000E+01   4.500000E+01   4.500000E+01   4.500000E+01   4.500000E+01   4.500000E+01   4.500000E+01   4.500000E+01   4.500000E+01   4.500000E+01   4.500000E+01   4.500000E+01
   4.500000E+01   4.500000E+01   4.500000E+01   4.500000E+01   4.500000E+01   4.500000E+01   4.500000E+01   4.500000E+01   4.500000E+01   4.500000E+01   4.500000E+01   4.500000E+01   4.500000E+01   4.500000E+01   4.500000E+01   4.500000E+01   4.500000E+01   4.500000E+01   4.500000E+01   4.500000E+01
   4.500000E+01   4.500000E+01   4.500000E+01   4.500000E+01   4.500000E+01   4.500000E+01   4.500000E+01   4.500000E+01   4.500000E+01   4.500000E+01   4.500000E+01   4.500000E+01   4.500000E+01   4.500000E+01   4.500000E+01   4.500000E+01   4.500000E+01   4.500000E+01   4.500000E+01   4.500000E+01
   4.500000E+01   4.500000E+01   4.500000E+01   4.500000E+01   4.500000E+01   4.500000E+01   4.500000E+01   4.500000E+01   4.500000E+01   4.500000E+01   4.500000E+01   4.500000E+01   4.500000E+01   4.500000E+01   4.500000E+01   4.500000E+01   4.500000E+01   4.500000E+01   4.500000E+01   4.500000E+01
   4.500000E+01   4.500000E+01   4.500000E+01   4.500000E+01   4.500000E+01   4.500000E+01   4.500000E+01   4.500000E+01   4.500000E+01   4.500000E+01   4.500000E+01   4.500000E+01   4.500000E+01   4.500000E+01   4.500000E+01   4.500000E+01   4.500000E+01   4.500000E+01   4.500000E+01   4.500000E+01
   4.500000E+01   4.500000E+01   4.500000E+01   4.500000E+01   4.500000E+01   4.500000E+01   4.500000E+01   4.500000E+01   4.500000E+01   4.500000E+01   4.500000E+01   4.500000E+01   4.500000E+01   4.500000E+01   4.500000E+01   4.500000E+01   4.500000E+01   4.500000E+01   4.500000E+01   4.500000E+01
   4.500000E+01   4.500000E+01   4.500000E+01   4.500000E+01   4.500000E+01   4.500000E+01   4.500000E+01   4.500000E+01   4.500000E+01   4.500000E+01   4.500000E+01   4.500000E+01   4.500000E+01   4.500000E+01   4.500000E+01   4.500000E+01   4.500000E+01   4.500000E+01   4.500000E+01   4.500000E+01
   4.500000E+01   4.500000E+01   4.500000E+01   4.500000E+01   4.500000E+01   4.500000E+01   4.500000E+01   4.500000E+01   4.500000E+01   4.500000E+01   4.500000E+01   4.500000E+01   4.500000E+01   4.500000E+01   4.500000E+01   4.500000E+01   4.500000E+01   4.500000E+01   4.500000E+01   4.500000E+01
   4.500000E+01   4.500000E+01   4.500000E+01   4.500000E+01   4.500000E+01   4.500000E+01   4.500000E+01   4.500000E+01   4.500000E+01   4.500000E+01   4.500000E+01   4.500000E+01   4.500000E+01   4.500000E+01   4.500000E+01   4.500000E+01   4.500000E+01   4.500000E+01   4.500000E+01   4.500000E+01
   4.500000E+01   4.500000E+01   4.500000E+01   4.500000E+01   4.500000E+01   4.500000E+01   4.500000E+01   4.500000E+01   4.500000E+01   4.500000E+01   4.500000E+01   4.500000E+01   4.500000E+01   4.500000E+01   4.500000E+01   4.500000E+01   4.500000E+01   4.500000E+01   4.500000E+01   4.500000E+01
   4.500000E+01   4.500000E+01   4.500000E+01   4.500000E+01   4.500000E+01   4.500000E+01   4.500000E+01   4.500000E+01   4.500000E+01   4.500000E+01   4.500000E+01   4.500000E+01   4.500000E+01   4.500000E+01   4.500000E+01   4.500000E+01   4.500000E+01   4.500000E+01   4.500000E+01   4.500000E+01
   4.500000E+01   4.500000E+01   4.500000E+01   4.500000E+01   4.500000E+01   4.500000E+01   4.500000E+01   4.500000E+01   4.500000E+01   4.500000E+01   4.500000E+01   4.500000E+01   4.500000E+01   4.500000E+01   4.500000E+01   4.500000E+01   4.500000E+01   4.500000E+01   4.500000E+01   4.500000E+01
   4.500000E+01   4.500000E+01   4.500000E+01   4.500000E+01   4.500000E+01   4.500000E+01   4.500000E+01   4.500000E+01   4.500000E+01   4.500000E+01   4.500000E+01   4.500000E+01   4.500000E+01   4.500000E+01   4.500000E+01   4.500000E+01   4.500000E+01   4.500000E+01   4.500000E+01   4.500000E+01
   4.500000E+01   4.500000E+01   4.500000E+01   4.500000E+01   4.500000E+01   4.500000E+01   4.500000E+01   4.500000E+01   4.500000E+01   4.500000E+01   4.500000E+01   4.500000E+01   4.500000E+01   4.500000E+01   4.500000E+01   4.500000E+01   4.500000E+01   4.500000E+01   4.500000E+01   4.500000E+01
   4.500000E+01   4.500000E+01   4.500000E+01   4.500000E+01   4.500000E+01   4.500000E+01   4.500000E+01   4.500000E+01   4.500000E+01   4.500000E+01   4.500000E+01   4.500000E+01   4.500000E+01   4.500000E+01   4.500000E+01   4.500000E+01   4.500000E+01   4.500000E+01   4.500000E+01   4.500000E+01
   4.500000E+01   4.500000E+01   4.500000E+01   4.500000E+01   4.500000E+01   4.500000E+01   4.500000E+01   4.500000E+01   4.500000E+01   4.500000E+01   4.500000E+01   4.500000E+01   4.500000E+01   4.500000E+01   4.500000E+01   4.500000E+01   4.500000E+01   4.500000E+01   4.500000E+01   4.500000E+01
   4.500000E+01   4.500000E+01   4.500000E+01   4.500000E+01   4.500000E+01   4.500000E+01   4.500000E+01   4.500000E+01   4.500000E+01   4.500000E+01   4.500000E+01   4.500000E+01   4.500000E+01   4.500000E+01   4.500000E+01   4.500000E+01   4.500000E+01   4.500000E+01   4.500000E+01   4.500000E+01
   4.500000E+01   4.500000E+01   4.500000E+01   4.500000E+01   4.500000E+01   4.500000E+01   4.500000E+01   4.500000E+01   4.500000E+01   4.500000E+01   4.500000E+01   4.500000E+01   4.500000E+01   4.500000E+01   4.500000E+01   4.500000E+01   4.500000E+01   4.500000E+01   4.500000E+01   4.500000E+01
   4.500000E+01   4.500000E+01   4.500000E+01   4.500000E+01   4.500000E+01   4.500000E+01   4.500000E+01   4.500000E+01   4.500000E+01   4.500000E+01   4.500000E+01   4.500000E+01   4.500000E+01   4.500000E+01   4.500000E+01   4.500000E+01   4.500000E+01   4.500000E+01   4.500000E+01   4.500000E+01
   4.500000E+01   4.500000E+01   4.500000E+01   4.500000E+01   4.500000E+01   4.500000E+01   4.500000E+01   4.500000E+01   4.500000E+01   4.500000E+01   4.500000E+01   4.500000E+01   4.500000E+01   4.500000E+01   4.500000E+01   4.500000E+01   4.500000E+01   4.500000E+01   4.500000E+01   4.500000E+01
   4.500000E+01   4.500000E+01   4.500000E+01   4.500000E+01   4.500000E+01   4.500000E+01   4.500000E+01   4.500000E+01   4.500000E+01   4.500000E+01   4.500000E+01   4.500000E+01   4.500000E+01   4.500000E+01   4.500000E+01   4.500000E+01   4.500000E+01   4.500000E+01   4.500000E+01   4.500000E+01
   4.500000E+01   4.500000E+01   4.500000E+01   4.500000E+01   4.500000E+01   4.500000E+01   4.500000E+01   4.500000E+01   4.500000E+01   4.500000E+01   4.500000E+01   4.500000E+01   4.500000E+01   4.500000E+01   4.500000E+01   4.500000E+01   4.500000E+01   4.500000E+01   4.500000E+01   4.500000E+01
   4.500000E+01   4.500000E+01   4.500000E+01   4.500000E+01   4.500000E+01   4.500000E+01   4.500000E+01   4.500000E+01   4.500000E+01   4.500000E+01   4.500000E+01   4.500000E+01   4.500000E+01   4.500000E+01   4.500000E+01   4.500000E+01   4.500000E+01   4.500000E+01   4.500000E+01   4.500000E+01
   4.500000E+01   4.500000E+01   4.500000E+01   4.500000E+01   4.500000E+01   4.500000E+01   4.500000E+01   4.500000E+01   4.500000E+01   4.500000E+01   4.500000E+01   4.500000E+01   4.500000E+01   4.500000E+01   4.500000E+01   4.500000E+01   4.500000E+01   4.500000E+01   4.500000E+01   4.500000E+01
   4.500000E+01   4.500000E+01   4.500000E+01   4.500000E+01   4.500000E+01   4.500000E+01   4.500000E+01   4.500000E+01   4.500000E+01   4.500000E+01   4.500000E+01   4.500000E+01   4.500000E+01   4.500000E+01   4.500000E+01   4.500000E+01   4.500000E+01   4.500000E+01   4.500000E+01   4.500000E+01
   4.500000E+01   4.500000E+01   4.500000E+01   4.500000E+01   4.500000E+01   4.500000E+01   4.500000E+01   4.500000E+01   4.500000E+01   4.500000E+01   4.500000E+01   4.500000E+01   4.500000E+01   4.500000E+01   4.500000E+01   4.500000E+01   4.500000E+01   4.500000E+01   4.500000E+01   4.500000E+01
   4.500000E+01   4.500000E+01   4.500000E+01   4.500000E+01   4.500000E+01   4.500000E+01   4.500000E+01   4.500000E+01   4.500000E+01   4.500000E+01   4.500000E+01   4.500000E+01   4.500000E+01   4.500000E+01   4.500000E+01   4.500000E+01   4.500000E+01   4.500000E+01   4.500000E+01   4.500000E+01
   4.500000E+01   4.500000E+01   4.500000E+01   4.500000E+01   4.500000E+01   4.500000E+01   4.500000E+01   4.500000E+01   4.500000E+01   4.500000E+01   4.500000E+01   4.500000E+01   4.500000E+01   4.500000E+01   4.500000E+01   4.500000E+01   4.500000E+01   4.500000E+01   4.500000E+01   4.500000E+01
   4.500000E+01   4.500000E+01   4.500000E+01   4.500000E+01   4.500000E+01   4.500000E+01   4.500000E+01   4.500000E+01   4.500000E+01   4.500000E+01   4.500000E+01   4.500000E+01   4.500000E+01   4.500000E+01   4.500000E+01   4.500000E+01   4.500000E+01   4.500000E+01   4.500000E+01   4.500000E+01
   4.500000E+01   4.500000E+01   4.500000E+01   4.500000E+01   4.500000E+01   4.500000E+01   4.500000E+01   4.500000E+01   4.500000E+01   4.500000E+01   4.500000E+01   4.500000E+01   4.500000E+01   4.500000E+01   4.500000E+01   4.500000E+01   4.500000E+01   4.500000E+01   4.500000E+01   4.500000E+01
   4.500000E+01   4.500000E+01   4.500000E+01   4.500000E+01   4.500000E+01   4.500000E+01   4.500000E+01   4.500000E+01   4.500000E+01   4.500000E+01   4.500000E+01   4.500000E+01   4.500000E+01   4.500000E+01   4.500000E+01   4.500000E+01   4.500000E+01   4.500000E+01   4.500000E+01   4.500000E+01
   4.500000E+01   4.500000E+01   4.500000E+01   4.500000E+01   4.500000E+01   1.690000E+01   1.640000E+01   1.610000E+01   1.560000E+01   1.510000E+01   1.400000E+01   1.300000E+01   1.250000E+01   1.200000E+01   1.140000E+01   4.500000E+01   4.500000E+01   4.500000E+01   4.500000E+01   4.500000E+01
