# RIV for MODFLOW, generated by Flopy.
        40        53 AUX IFACE
        40         0 # stress period 0
         1         1        15   2.0100000E+01   5.0000001E-02   2.0000000E+01   0.0000000E+00
         1         2        15   1.9870001E+01   5.0000001E-02   1.9750000E+01   0.0000000E+00
         1         3        15   1.9650000E+01   5.0000001E-02   1.9500000E+01   0.0000000E+00
         1         4        15   1.9420000E+01   5.0000001E-02   1.9250000E+01   0.0000000E+00
         1         5        15   1.9190001E+01   5.0000001E-02   1.9000000E+01   0.0000000E+00
         1         6        15   1.8969999E+01   5.0000001E-02   1.8750000E+01   0.0000000E+00
         1         7        15   1.8740000E+01   5.0000001E-02   1.8500000E+01   0.0000000E+00
         1         8        15   1.8510000E+01   5.0000001E-02   1.8250000E+01   0.0000000E+00
         1         9        15   1.8280001E+01   5.0000001E-02   1.8000000E+01   0.0000000E+00
         1        10        15   1.9059999E+01   5.0000001E-02   1.7750000E+01   0.0000000E+00
         1        11        15   1.7830000E+01   5.0000001E-02   1.7500000E+01   0.0000000E+00
         1        12        15   1.7600000E+01   5.0000001E-02   1.7250000E+01   0.0000000E+00
         1        13        15   1.7379999E+01   5.0000001E-02   1.7000000E+01   0.0000000E+00
         1        14        15   1.7150000E+01   5.0000001E-02   1.6750000E+01   0.0000000E+00
         1        15        15   1.6920000E+01   5.0000001E-02   1.6500000E+01   0.0000000E+00
         1        16        15   1.6700001E+01   5.0000001E-02   1.6250000E+01   0.0000000E+00
         1        17        15   1.6469999E+01   5.0000001E-02   1.6000000E+01   0.0000000E+00
         1        18        15   1.6240000E+01   5.0000001E-02   1.5750000E+01   0.0000000E+00
         1        19        15   1.6020000E+01   5.0000001E-02   1.5500000E+01   0.0000000E+00
         1        20        15   1.5790000E+01   5.0000001E-02   1.5250000E+01   0.0000000E+00
         1        21        15   1.5560000E+01   5.0000001E-02   1.5000000E+01   0.0000000E+00
         1        22        15   1.5330000E+01   5.0000001E-02   1.4750000E+01   0.0000000E+00
         1        23        15   1.5110000E+01   5.0000001E-02   1.4500000E+01   0.0000000E+00
         1        24        15   1.4880000E+01   5.0000001E-02   1.4250000E+01   0.0000000E+00
         1        25        15   1.4650000E+01   5.0000001E-02   1.4000000E+01   0.0000000E+00
         1        26        15   1.4430000E+01   5.0000001E-02   1.3750000E+01   0.0000000E+00
         1        27        15   1.4200000E+01   5.0000001E-02   1.3500000E+01   0.0000000E+00
         1        28        15   1.3970000E+01   5.0000001E-02   1.3250000E+01   0.0000000E+00
         1        29        15   1.3750000E+01   5.0000001E-02   1.3000000E+01   0.0000000E+00
         1        30        15   1.3520000E+01   5.0000001E-02   1.2750000E+01   0.0000000E+00
         1        31        15   1.3290000E+01   5.0000001E-02   1.2500000E+01   0.0000000E+00
         1        32        15   1.3070000E+01   5.0000001E-02   1.2250000E+01   0.0000000E+00
         1        33        15   1.2840000E+01   5.0000001E-02   1.2000000E+01   0.0000000E+00
         1        34        15   1.2610000E+01   5.0000001E-02   1.1750000E+01   0.0000000E+00
         1        35        15   1.2380000E+01   5.0000001E-02   1.1500000E+01   0.0000000E+00
         1        36        15   1.2160000E+01   5.0000001E-02   1.1250000E+01   0.0000000E+00
         1        37        15   1.1930000E+01   5.0000001E-02   1.1000000E+01   0.0000000E+00
         1        38        15   1.1700000E+01   5.0000001E-02   1.0750000E+01   0.0000000E+00
         1        39        15   1.1480000E+01   5.0000001E-02   1.0500000E+01   0.0000000E+00
         1        40        15   1.1250000E+01   5.0000001E-02   1.0250000E+01   0.0000000E+00
