# Well file for MODFLOW, generated by Flopy.
         6        53 AUX IFACE
         6         0 # stress period 0
         1         9        16  -8.2000000E-03   0.0000000E+00
         1        11        13  -4.1000000E-03   0.0000000E+00
         1        20        14  -3.8999999E-03   0.0000000E+00
         1        26        10  -8.2999998E-04   0.0000000E+00
         1        29         6  -7.2000001E-04   0.0000000E+00
         1        34        12  -4.3000001E-03   0.0000000E+00
