# MODFLOW2000 Recharge Package
PARAMETER  0
         3        50
         1         1
        18     1.000(10e12.4)                   -1     RECHARGE
 -1.0300e-03 -1.0300e-03 -1.0300e-03 -1.0300e-03 -1.0300e-03 -1.0300e-03 -1.0300e-03 -1.0300e-03 -1.0300e-03 -1.0300e-03
 -1.0300e-03 -1.0300e-03 -1.0300e-03 -1.0300e-03 -1.0300e-03 -1.0300e-03 -1.0300e-03 -1.0300e-03 -1.0300e-03 -1.0300e-03
 -1.0300e-03 -1.0300e-03 -1.0300e-03 -1.0300e-03 -1.0300e-03 -1.0300e-03 -1.0300e-03 -1.0300e-03 -1.0300e-03 -1.0300e-03
 -1.0300e-03 -1.0300e-03 -1.0300e-03 -1.0300e-03 -1.0300e-03 -1.0300e-03 -1.0300e-03 -1.0300e-03 -1.0300e-03 -1.0300e-03
 -1.0300e-03 -1.0300e-03 -1.0300e-03 -1.0300e-03 -1.0300e-03 -1.0300e-03 -1.0300e-03 -1.0300e-03 -1.0300e-03 -1.0300e-03
 -1.0300e-03 -1.0300e-03 -1.0300e-03 -1.0300e-03 -1.0300e-03 -1.0300e-03 -1.0300e-03 -1.0300e-03 -1.0300e-03 -1.0300e-03
 -1.0300e-03 -1.0300e-03 -1.0300e-03 -1.0300e-03 -1.0300e-03 -1.0300e-03 -1.0300e-03  0.0000e+00  0.0000e+00  0.0000e+00
  0.0000e+00  0.0000e+00  0.0000e+00  0.0000e+00  0.0000e+00  0.0000e+00  0.0000e+00  0.0000e+00  0.0000e+00  0.0000e+00
  0.0000e+00  0.0000e+00  0.0000e+00  0.0000e+00  0.0000e+00  0.0000e+00  0.0000e+00  0.0000e+00  0.0000e+00  0.0000e+00
  0.0000e+00  0.0000e+00  0.0000e+00  0.0000e+00  0.0000e+00  0.0000e+00  0.0000e+00  0.0000e+00  0.0000e+00  0.0000e+00
  0.0000e+00  0.0000e+00  0.0000e+00  0.0000e+00  0.0000e+00  0.0000e+00  0.0000e+00  0.0000e+00  0.0000e+00  0.0000e+00
  0.0000e+00  0.0000e+00  0.0000e+00  0.0000e+00  0.0000e+00  0.0000e+00  0.0000e+00  0.0000e+00  0.0000e+00  0.0000e+00
  0.0000e+00  0.0000e+00  0.0000e+00  0.0000e+00  0.0000e+00  0.0000e+00  0.0000e+00  0.0000e+00  0.0000e+00  0.0000e+00
  0.0000e+00  0.0000e+00  0.0000e+00  0.0000e+00  0.0000e+00
