# MODFLOW2000 Basic Package
#MODFLOW Data Set Created by Groundwater Vistas
#   

         1         1(25I3)                      -1     IBOUND Layer   1
  1  1  1  1  1  1  1  1  1  1  1  1  1  1  1  1  1  1  1  1  1  1  1  1  1
  1  1  1  1  1  1  1  1  1  1  1  1  1  1  1  1  1  1  1  1  1  1  1  1  1
  1  1  1  1  1  1  1  1  1  1  1  1  1  1  1  1  1  0  0  0  0  0  0  0  0
  0  0  0  0  0  0  0  0  0  0  0  0  0  0  0  0  0  0  0  0  0  0  0  0  0
  0 -1 -1 -1 -1 -1 -1 -1 -1 -1 -1 -1 -1 -1 -1 -1 -1 -1 -1 -1 -1 -1 -1 -1 -1
 -1 -1 -1 -1 -1 -1 -1 -1 -1 -1
         0         1(25I3)                      -1     IBOUND Layer   2
         0         1(25I3)                      -1     IBOUND Layer   3
         0         1(25I3)                      -1     IBOUND Layer   4
         0         1(25I3)                      -1     IBOUND Layer   5
         0         1(25I3)                      -1     IBOUND Layer   6
         0         1(25I3)                      -1     IBOUND Layer   7
         0         1(25I3)                      -1     IBOUND Layer   8
         0         1(25I3)                      -1     IBOUND Layer   9
         0         1(25I3)                      -1     IBOUND Layer  10
         0         1(25I3)                      -1     IBOUND Layer  11
         0         1(25I3)                      -1     IBOUND Layer  12
         0         1(25I3)                      -1     IBOUND Layer  13
         0         1(25I3)                      -1     IBOUND Layer  14
         0         1(25I3)                      -1     IBOUND Layer  15
         0         1(25I3)                      -1     IBOUND Layer  16
         0         1(25I3)                      -1     IBOUND Layer  17
         0         1(25I3)                      -1     IBOUND Layer  18
         0         1(25I3)                      -1     IBOUND Layer  19
         0         1(25I3)                      -1     IBOUND Layer  20
         0         1(25I3)                      -1     IBOUND Layer  21
         0         1(25I3)                      -1     IBOUND Layer  22
         0         1(25I3)                      -1     IBOUND Layer  23
         0         1(25I3)                      -1     IBOUND Layer  24
         0         1(25I3)                      -1     IBOUND Layer  25
         0         1(25I3)                      -1     IBOUND Layer  26
         0         1(25I3)                      -1     IBOUND Layer  27
         0         1(25I3)                      -1     IBOUND Layer  28
         0         1(25I3)                      -1     IBOUND Layer  29
         0         1(25I3)                      -1     IBOUND Layer  30
         0         1(25I3)                      -1     IBOUND Layer  31
         0         1(25I3)                      -1     IBOUND Layer  32
         0         1(25I3)                      -1     IBOUND Layer  33
         0         1(25I3)                      -1     IBOUND Layer  34
         0         1(25I3)                      -1     IBOUND Layer  35
         0         1(25I3)                      -1     IBOUND Layer  36
         0         1(25I3)                      -1     IBOUND Layer  37
         0         1(25I3)                      -1     IBOUND Layer  38
         0         1(25I3)                      -1     IBOUND Layer  39
         0         1(25I3)                      -1     IBOUND Layer  40
         0         1(25I3)                      -1     IBOUND Layer  41
         0         1(25I3)                      -1     IBOUND Layer  42
         0         1(25I3)                      -1     IBOUND Layer  43
         0         1(25I3)                      -1     IBOUND Layer  44
         0         1(25I3)                      -1     IBOUND Layer  45
         0         1(25I3)                      -1     IBOUND Layer  46
         0         1(25I3)                      -1     IBOUND Layer  47
         0         1(25I3)                      -1     IBOUND Layer  48
         0         1(25I3)                      -1     IBOUND Layer  49
         0         1(25I3)                      -1     IBOUND Layer  50
         0         1(25I3)                      -1     IBOUND Layer  51
         0         1(25I3)                      -1     IBOUND Layer  52
         0         1(25I3)                      -1     IBOUND Layer  53
         0         1(25I3)                      -1     IBOUND Layer  54
         0         1(25I3)                      -1     IBOUND Layer  55
         0         1(25I3)                      -1     IBOUND Layer  56
         0         1(25I3)                      -1     IBOUND Layer  57
9.9900e+02
         0    75.000(10e12.4)                   -1     STARTING HEADS Layer   1
         0    75.000(10e12.4)                   -1     STARTING HEADS Layer   2
         0    75.000(10e12.4)                   -1     STARTING HEADS Layer   3
         0    75.000(10e12.4)                   -1     STARTING HEADS Layer   4
         0    75.000(10e12.4)                   -1     STARTING HEADS Layer   5
         0    75.000(10e12.4)                   -1     STARTING HEADS Layer   6
         0    75.000(10e12.4)                   -1     STARTING HEADS Layer   7
         0    75.000(10e12.4)                   -1     STARTING HEADS Layer   8
         0    75.000(10e12.4)                   -1     STARTING HEADS Layer   9
         0    75.000(10e12.4)                   -1     STARTING HEADS Layer  10
         0    75.000(10e12.4)                   -1     STARTING HEADS Layer  11
         0    75.000(10e12.4)                   -1     STARTING HEADS Layer  12
         0    75.000(10e12.4)                   -1     STARTING HEADS Layer  13
         0    75.000(10e12.4)                   -1     STARTING HEADS Layer  14
         0    75.000(10e12.4)                   -1     STARTING HEADS Layer  15
         0    75.000(10e12.4)                   -1     STARTING HEADS Layer  16
         0    75.000(10e12.4)                   -1     STARTING HEADS Layer  17
         0    75.000(10e12.4)                   -1     STARTING HEADS Layer  18
         0    75.000(10e12.4)                   -1     STARTING HEADS Layer  19
         0    75.000(10e12.4)                   -1     STARTING HEADS Layer  20
         0    75.000(10e12.4)                   -1     STARTING HEADS Layer  21
         0    75.000(10e12.4)                   -1     STARTING HEADS Layer  22
         0    75.000(10e12.4)                   -1     STARTING HEADS Layer  23
         0    75.000(10e12.4)                   -1     STARTING HEADS Layer  24
         0    75.000(10e12.4)                   -1     STARTING HEADS Layer  25
         0    75.000(10e12.4)                   -1     STARTING HEADS Layer  26
         0    75.000(10e12.4)                   -1     STARTING HEADS Layer  27
         0    75.000(10e12.4)                   -1     STARTING HEADS Layer  28
         0    75.000(10e12.4)                   -1     STARTING HEADS Layer  29
         0    75.000(10e12.4)                   -1     STARTING HEADS Layer  30
         0    75.000(10e12.4)                   -1     STARTING HEADS Layer  31
         0    75.000(10e12.4)                   -1     STARTING HEADS Layer  32
         0    75.000(10e12.4)                   -1     STARTING HEADS Layer  33
         0    75.000(10e12.4)                   -1     STARTING HEADS Layer  34
         0    75.000(10e12.4)                   -1     STARTING HEADS Layer  35
         0    75.000(10e12.4)                   -1     STARTING HEADS Layer  36
         0    75.000(10e12.4)                   -1     STARTING HEADS Layer  37
         0    75.000(10e12.4)                   -1     STARTING HEADS Layer  38
         0    75.000(10e12.4)                   -1     STARTING HEADS Layer  39
         0    75.000(10e12.4)                   -1     STARTING HEADS Layer  40
         0    75.000(10e12.4)                   -1     STARTING HEADS Layer  41
         0    75.000(10e12.4)                   -1     STARTING HEADS Layer  42
         0    75.000(10e12.4)                   -1     STARTING HEADS Layer  43
         0    75.000(10e12.4)                   -1     STARTING HEADS Layer  44
         0    75.000(10e12.4)                   -1     STARTING HEADS Layer  45
         0    75.000(10e12.4)                   -1     STARTING HEADS Layer  46
         0    75.000(10e12.4)                   -1     STARTING HEADS Layer  47
         0    75.000(10e12.4)                   -1     STARTING HEADS Layer  48
         0    75.000(10e12.4)                   -1     STARTING HEADS Layer  49
         0    75.000(10e12.4)                   -1     STARTING HEADS Layer  50
         0    75.000(10e12.4)                   -1     STARTING HEADS Layer  51
         0    75.000(10e12.4)                   -1     STARTING HEADS Layer  52
         0    75.000(10e12.4)                   -1     STARTING HEADS Layer  53
         0    75.000(10e12.4)                   -1     STARTING HEADS Layer  54
         0    75.000(10e12.4)                   -1     STARTING HEADS Layer  55
         0    75.000(10e12.4)                   -1     STARTING HEADS Layer  56
         0    75.000(10e12.4)                   -1     STARTING HEADS Layer  57
