# MODFLOW2000 Discretization File
 57  1  135  1  1  0
 0 0 0 0 0 0 0 0 0 0 0 0 0 0 0 0 0 0 0 0 0 0 0 0 0 0 0 0 0 0 0 0 0 0 0 0 0 0 0 0 0 0 0 0 0 0 0 0 0 0
 0 0 0 0 0 0 0
        23     1.000(10E12.4)                    0     DELTA-X or C
  7.5000e-01  7.5000e-01  7.5000e-01  7.5000e-01  7.5000e-01  7.5000e-01  7.5000e-01  7.5000e-01  7.5000e-01  7.5000e-01
  7.5000e-01  7.5000e-01  7.5000e-01  7.5000e-01  7.5000e-01  7.5000e-01  7.5000e-01  7.5000e-01  7.5000e-01  7.5000e-01
  7.5000e-01  7.5000e-01  7.5000e-01  7.5000e-01  7.5000e-01  7.5000e-01  7.5000e-01  7.5000e-01  7.5000e-01  7.5000e-01
  7.5000e-01  7.5000e-01  7.5000e-01  7.5000e-01  7.5000e-01  7.5000e-01  7.5000e-01  7.5000e-01  7.5000e-01  7.5000e-01
  7.5000e-01  7.5000e-01  7.5000e-01  7.5000e-01  7.5000e-01  7.5000e-01  7.5000e-01  7.5000e-01  7.5000e-01  7.5000e-01
  7.5000e-01  7.5000e-01  7.5000e-01  7.5000e-01  7.5000e-01  7.5000e-01  7.5000e-01  7.5000e-01  7.5000e-01  7.5000e-01
  7.5000e-01  7.5000e-01  7.5000e-01  7.5000e-01  7.5000e-01  7.5000e-01  7.5000e-01  7.5000e-01  7.5000e-01  7.5000e-01
  1.5000e+00  1.5000e+00  1.5000e+00  1.5000e+00  1.5000e+00  1.5000e+00  1.5000e+00  1.5000e+00  1.5000e+00  1.5000e+00
  1.5000e+00  1.5000e+00  1.5000e+00  1.5000e+00  1.5000e+00  1.5000e+00  1.5000e+00  1.5000e+00  1.5000e+00  1.5000e+00
  1.5000e+00  1.5000e+00  1.5000e+00  1.5000e+00  1.5000e+00  1.5000e+00  1.5000e+00  1.5000e+00  1.5000e+00  1.5000e+00
  1.5000e+00  1.5000e+00  1.5000e+00  1.5000e+00  1.5000e+00  1.5000e+00  1.5000e+00  1.5000e+00  1.5000e+00  1.5000e+00
  1.5000e+00  1.5000e+00  1.5000e+00  1.5000e+00  1.5000e+00  1.5000e+00  1.5000e+00  1.5000e+00  1.5000e+00  1.5000e+00
  1.5000e+00  1.5000e+00  1.5000e+00  1.5000e+00  1.5000e+00  1.5000e+00  1.5000e+00  1.5000e+00  1.5000e+00  1.5000e+00
  1.5000e+00  1.5000e+00  1.5000e+00  1.5000e+00  1.5000e+00
         0     1.500(10E12.4)                    0     DELTA-Y or R
         0    75.000(10e12.4)                   -1     TOP of Model
         0    74.200(10e12.4)                   -1     BOTTOM of Layer   1
         0    73.500(10e12.4)                   -1     BOTTOM of Layer   2
         0    72.700(10e12.4)                   -1     BOTTOM of Layer   3
         0    72.000(10e12.4)                   -1     BOTTOM of Layer   4
         0    71.200(10e12.4)                   -1     BOTTOM of Layer   5
         0    70.500(10e12.4)                   -1     BOTTOM of Layer   6
         0    69.700(10e12.4)                   -1     BOTTOM of Layer   7
         0    69.000(10e12.4)                   -1     BOTTOM of Layer   8
         0    68.200(10e12.4)                   -1     BOTTOM of Layer   9
         0    67.500(10e12.4)                   -1     BOTTOM of Layer  10
         0    66.700(10e12.4)                   -1     BOTTOM of Layer  11
         0    66.000(10e12.4)                   -1     BOTTOM of Layer  12
         0    65.200(10e12.4)                   -1     BOTTOM of Layer  13
         0    64.500(10e12.4)                   -1     BOTTOM of Layer  14
         0    63.000(10e12.4)                   -1     BOTTOM of Layer  15
         0    61.500(10e12.4)                   -1     BOTTOM of Layer  16
         0    60.000(10e12.4)                   -1     BOTTOM of Layer  17
         0    58.500(10e12.4)                   -1     BOTTOM of Layer  18
         0    57.000(10e12.4)                   -1     BOTTOM of Layer  19
         0    55.500(10e12.4)                   -1     BOTTOM of Layer  20
         0    54.000(10e12.4)                   -1     BOTTOM of Layer  21
         0    52.500(10e12.4)                   -1     BOTTOM of Layer  22
         0    51.000(10e12.4)                   -1     BOTTOM of Layer  23
         0    49.500(10e12.4)                   -1     BOTTOM of Layer  24
         0    48.000(10e12.4)                   -1     BOTTOM of Layer  25
         0    46.500(10e12.4)                   -1     BOTTOM of Layer  26
         0    45.000(10e12.4)                   -1     BOTTOM of Layer  27
         0    43.500(10e12.4)                   -1     BOTTOM of Layer  28
         0    42.000(10e12.4)                   -1     BOTTOM of Layer  29
         0    40.500(10e12.4)                   -1     BOTTOM of Layer  30
         0    39.000(10e12.4)                   -1     BOTTOM of Layer  31
         0    37.500(10e12.4)                   -1     BOTTOM of Layer  32
         0    36.000(10e12.4)                   -1     BOTTOM of Layer  33
         0    34.500(10e12.4)                   -1     BOTTOM of Layer  34
         0    33.000(10e12.4)                   -1     BOTTOM of Layer  35
         0    31.500(10e12.4)                   -1     BOTTOM of Layer  36
         0    30.000(10e12.4)                   -1     BOTTOM of Layer  37
         0    28.500(10e12.4)                   -1     BOTTOM of Layer  38
         0    27.000(10e12.4)                   -1     BOTTOM of Layer  39
         0    25.500(10e12.4)                   -1     BOTTOM of Layer  40
         0    24.000(10e12.4)                   -1     BOTTOM of Layer  41
         0    22.500(10e12.4)                   -1     BOTTOM of Layer  42
         0    21.000(10e12.4)                   -1     BOTTOM of Layer  43
         0    19.500(10e12.4)                   -1     BOTTOM of Layer  44
         0    18.000(10e12.4)                   -1     BOTTOM of Layer  45
         0    16.500(10e12.4)                   -1     BOTTOM of Layer  46
         0    15.000(10e12.4)                   -1     BOTTOM of Layer  47
         0    13.500(10e12.4)                   -1     BOTTOM of Layer  48
         0    12.000(10e12.4)                   -1     BOTTOM of Layer  49
         0    10.500(10e12.4)                   -1     BOTTOM of Layer  50
         0     9.000(10e12.4)                   -1     BOTTOM of Layer  51
         0     7.500(10e12.4)                   -1     BOTTOM of Layer  52
         0     6.000(10e12.4)                   -1     BOTTOM of Layer  53
         0     4.500(10e12.4)                   -1     BOTTOM of Layer  54
         0     3.000(10e12.4)                   -1     BOTTOM of Layer  55
         0     1.500(10e12.4)                   -1     BOTTOM of Layer  56
         00.0000e+00(10e12.4)                   -1     BOTTOM of Layer  57
  24000.000000  1  1.000000  TR
