# MODFLOW-USG Block-Centered Transport (BCT) Package
 1 0 1 1 9 1 0   -1.000000e+00 1.000000e-06    1 0 0.000000e+00 0 0  0   0  0  0  1 TIMEWEIGHT 1.000000 
INTERNAL  1.000000e+00  (FREE)  -1  Porosity Layer 1
 3.300000e-01 3.300000e-01 3.300000e-01 3.300000e-01
INTERNAL  1.000000e+00  (FREE)  -1  Porosity Layer 2
 3.300000e-01 3.300000e-01 3.300000e-01 3.300000e-01
INTERNAL  1.000000e+00  (FREE)  -1  Porosity Layer 3
 3.300000e-01 3.300000e-01 3.300000e-01 3.300000e-01
INTERNAL  1.000000e+00  (FREE)  -1  Porosity Layer 4
 3.300000e-01 3.300000e-01 3.300000e-01 3.300000e-01
INTERNAL  1.000000e+00  (FREE)  -1  Porosity Layer 5
 3.300000e-01 3.300000e-01 3.300000e-01 3.300000e-01
INTERNAL  1.000000e+00  (FREE)  -1  Porosity Layer 6
 3.300000e-01 3.300000e-01 3.300000e-01 3.300000e-01
INTERNAL  1.000000e+00  (FREE)  -1  Porosity Layer 7
 3.300000e-01 3.300000e-01 3.300000e-01 3.300000e-01
INTERNAL  1.000000e+00  (FREE)  -1  Porosity Layer 8
 3.300000e-01 3.300000e-01 3.300000e-01 3.300000e-01
INTERNAL  1.000000e+00  (FREE)  -1  Porosity Layer 9
 3.300000e-01 3.300000e-01 3.300000e-01 3.300000e-01
INTERNAL  1.000000e+00  (FREE)  -1  Porosity Layer 10
 3.300000e-01 3.300000e-01 3.300000e-01 3.300000e-01
INTERNAL  1.000000e+00  (FREE)  -1  Porosity Layer 11
 3.300000e-01 3.300000e-01 3.300000e-01 3.300000e-01
INTERNAL  1.000000e+00  (FREE)  -1  Porosity Layer 12
 3.300000e-01 3.300000e-01 3.300000e-01 3.300000e-01
INTERNAL  1.000000e+00  (FREE)  -1  Porosity Layer 13
 3.300000e-01 3.300000e-01 3.300000e-01 3.300000e-01
INTERNAL  1.000000e+00  (FREE)  -1  Porosity Layer 14
 3.300000e-01 3.300000e-01 3.300000e-01 3.300000e-01
INTERNAL  1.000000e+00  (FREE)  -1  Porosity Layer 15
 3.300000e-01 3.300000e-01 3.300000e-01 3.300000e-01
INTERNAL  1.000000e+00  (FREE)  -1  Porosity Layer 16
 3.300000e-01 3.300000e-01 3.300000e-01 3.300000e-01
INTERNAL  1.000000e+00  (FREE)  -1  Porosity Layer 17
 3.300000e-01 3.300000e-01 3.300000e-01 3.300000e-01
INTERNAL  1.000000e+00  (FREE)  -1  Porosity Layer 18
 3.300000e-01 3.300000e-01 3.300000e-01 3.300000e-01
INTERNAL  1.000000e+00  (FREE)  -1  Porosity Layer 19
 3.300000e-01 3.300000e-01 3.300000e-01 3.300000e-01
INTERNAL  1.000000e+00  (FREE)  -1  Porosity Layer 20
 3.300000e-01 3.300000e-01 3.300000e-01 3.300000e-01
INTERNAL  1.000000e+00  (FREE)  -1  Porosity Layer 21
 3.300000e-01 3.300000e-01 3.300000e-01 3.300000e-01
INTERNAL  1.000000e+00  (FREE)  -1  Porosity Layer 22
 3.300000e-01 3.300000e-01 3.300000e-01 3.300000e-01
INTERNAL  1.000000e+00  (FREE)  -1  Porosity Layer 23
 3.300000e-01 3.300000e-01 3.300000e-01 3.300000e-01
INTERNAL  1.000000e+00  (FREE)  -1  Porosity Layer 24
 3.300000e-01 3.300000e-01 3.300000e-01 3.300000e-01
INTERNAL  1.000000e+00  (FREE)  -1  Porosity Layer 25
 3.300000e-01 3.300000e-01 3.300000e-01 3.300000e-01
INTERNAL  1.000000e+00  (FREE)  -1  Porosity Layer 26
 3.300000e-01 3.300000e-01 3.300000e-01 3.300000e-01
INTERNAL  1.000000e+00  (FREE)  -1  Porosity Layer 27
 3.300000e-01 3.300000e-01 3.300000e-01 3.300000e-01
INTERNAL  1.000000e+00  (FREE)  -1  Porosity Layer 28
 3.300000e-01 3.300000e-01 3.300000e-01 3.300000e-01
INTERNAL  1.000000e+00  (FREE)  -1  Porosity Layer 29
 3.300000e-01 3.300000e-01 3.300000e-01 3.300000e-01
INTERNAL  1.000000e+00  (FREE)  -1  Porosity Layer 30
 3.300000e-01 3.300000e-01 3.300000e-01 3.300000e-01
INTERNAL  1.000000e+00  (FREE)  -1  BULKD Layer 1
 1.500000e+01 1.500000e+01 1.500000e+01 1.500000e+01
INTERNAL  1.000000e+00  (FREE)  -1  BULKD Layer 2
 1.500000e+01 1.500000e+01 1.500000e+01 1.500000e+01
INTERNAL  1.000000e+00  (FREE)  -1  BULKD Layer 3
 1.500000e+01 1.500000e+01 1.500000e+01 1.500000e+01
INTERNAL  1.000000e+00  (FREE)  -1  BULKD Layer 4
 1.500000e+01 1.500000e+01 1.500000e+01 1.500000e+01
INTERNAL  1.000000e+00  (FREE)  -1  BULKD Layer 5
 1.500000e+01 1.500000e+01 1.500000e+01 1.500000e+01
INTERNAL  1.000000e+00  (FREE)  -1  BULKD Layer 6
 1.500000e+01 1.500000e+01 1.500000e+01 1.500000e+01
INTERNAL  1.000000e+00  (FREE)  -1  BULKD Layer 7
 1.500000e+01 1.500000e+01 1.500000e+01 1.500000e+01
INTERNAL  1.000000e+00  (FREE)  -1  BULKD Layer 8
 1.500000e+01 1.500000e+01 1.500000e+01 1.500000e+01
INTERNAL  1.000000e+00  (FREE)  -1  BULKD Layer 9
 1.500000e+01 1.500000e+01 1.500000e+01 1.500000e+01
INTERNAL  1.000000e+00  (FREE)  -1  BULKD Layer 10
 1.500000e+01 1.500000e+01 1.500000e+01 1.500000e+01
INTERNAL  1.000000e+00  (FREE)  -1  BULKD Layer 11
 1.500000e+01 1.500000e+01 1.500000e+01 1.500000e+01
INTERNAL  1.000000e+00  (FREE)  -1  BULKD Layer 12
 1.500000e+01 1.500000e+01 1.500000e+01 1.500000e+01
INTERNAL  1.000000e+00  (FREE)  -1  BULKD Layer 13
 1.500000e+01 1.500000e+01 1.500000e+01 1.500000e+01
INTERNAL  1.000000e+00  (FREE)  -1  BULKD Layer 14
 1.500000e+01 1.500000e+01 1.500000e+01 1.500000e+01
INTERNAL  1.000000e+00  (FREE)  -1  BULKD Layer 15
 1.500000e+01 1.500000e+01 1.500000e+01 1.500000e+01
INTERNAL  1.000000e+00  (FREE)  -1  BULKD Layer 16
 1.500000e+01 1.500000e+01 1.500000e+01 1.500000e+01
INTERNAL  1.000000e+00  (FREE)  -1  BULKD Layer 17
 1.500000e+01 1.500000e+01 1.500000e+01 1.500000e+01
INTERNAL  1.000000e+00  (FREE)  -1  BULKD Layer 18
 1.500000e+01 1.500000e+01 1.500000e+01 1.500000e+01
INTERNAL  1.000000e+00  (FREE)  -1  BULKD Layer 19
 1.500000e+01 1.500000e+01 1.500000e+01 1.500000e+01
INTERNAL  1.000000e+00  (FREE)  -1  BULKD Layer 20
 1.500000e+01 1.500000e+01 1.500000e+01 1.500000e+01
INTERNAL  1.000000e+00  (FREE)  -1  BULKD Layer 21
 1.500000e+01 1.500000e+01 1.500000e+01 1.500000e+01
INTERNAL  1.000000e+00  (FREE)  -1  BULKD Layer 22
 1.500000e+01 1.500000e+01 1.500000e+01 1.500000e+01
INTERNAL  1.000000e+00  (FREE)  -1  BULKD Layer 23
 1.500000e+01 1.500000e+01 1.500000e+01 1.500000e+01
INTERNAL  1.000000e+00  (FREE)  -1  BULKD Layer 24
 1.500000e+01 1.500000e+01 1.500000e+01 1.500000e+01
INTERNAL  1.000000e+00  (FREE)  -1  BULKD Layer 25
 1.500000e+01 1.500000e+01 1.500000e+01 1.500000e+01
INTERNAL  1.000000e+00  (FREE)  -1  BULKD Layer 26
 1.500000e+01 1.500000e+01 1.500000e+01 1.500000e+01
INTERNAL  1.000000e+00  (FREE)  -1  BULKD Layer 27
 1.500000e+01 1.500000e+01 1.500000e+01 1.500000e+01
INTERNAL  1.000000e+00  (FREE)  -1  BULKD Layer 28
 1.500000e+01 1.500000e+01 1.500000e+01 1.500000e+01
INTERNAL  1.000000e+00  (FREE)  -1  BULKD Layer 29
 1.500000e+01 1.500000e+01 1.500000e+01 1.500000e+01
INTERNAL  1.000000e+00  (FREE)  -1  BULKD Layer 30
 1.500000e+01 1.500000e+01 1.500000e+01 1.500000e+01
INTERNAL  1.0  (FREE)  -1  ANGLEX by NJAG
 0.000000e+00 0.000000e+00 1.570796e+00 0.000000e+00
 0.000000e+00 3.141593e+00 1.570796e+00 0.000000e+00
 0.000000e+00 4.712389e+00 0.000000e+00 0.000000e+00
 0.000000e+00 4.712389e+00 3.141593e+00 0.000000e+00
 0.000000e+00 0.000000e+00 0.000000e+00 1.570796e+00 0.000000e+00
 0.000000e+00 0.000000e+00 3.141593e+00 1.570796e+00 0.000000e+00
 0.000000e+00 0.000000e+00 4.712389e+00 0.000000e+00 0.000000e+00
 0.000000e+00 0.000000e+00 4.712389e+00 3.141593e+00 0.000000e+00
 0.000000e+00 0.000000e+00 0.000000e+00 1.570796e+00 0.000000e+00
 0.000000e+00 0.000000e+00 3.141593e+00 1.570796e+00 0.000000e+00
 0.000000e+00 0.000000e+00 4.712389e+00 0.000000e+00 0.000000e+00
 0.000000e+00 0.000000e+00 4.712389e+00 3.141593e+00 0.000000e+00
 0.000000e+00 0.000000e+00 0.000000e+00 1.570796e+00 0.000000e+00
 0.000000e+00 0.000000e+00 3.141593e+00 1.570796e+00 0.000000e+00
 0.000000e+00 0.000000e+00 4.712389e+00 0.000000e+00 0.000000e+00
 0.000000e+00 0.000000e+00 4.712389e+00 3.141593e+00 0.000000e+00
 0.000000e+00 0.000000e+00 0.000000e+00 1.570796e+00 0.000000e+00
 0.000000e+00 0.000000e+00 3.141593e+00 1.570796e+00 0.000000e+00
 0.000000e+00 0.000000e+00 4.712389e+00 0.000000e+00 0.000000e+00
 0.000000e+00 0.000000e+00 4.712389e+00 3.141593e+00 0.000000e+00
 0.000000e+00 0.000000e+00 0.000000e+00 1.570796e+00 0.000000e+00
 0.000000e+00 0.000000e+00 3.141593e+00 1.570796e+00 0.000000e+00
 0.000000e+00 0.000000e+00 4.712389e+00 0.000000e+00 0.000000e+00
 0.000000e+00 0.000000e+00 4.712389e+00 3.141593e+00 0.000000e+00
 0.000000e+00 0.000000e+00 0.000000e+00 1.570796e+00 0.000000e+00
 0.000000e+00 0.000000e+00 3.141593e+00 1.570796e+00 0.000000e+00
 0.000000e+00 0.000000e+00 4.712389e+00 0.000000e+00 0.000000e+00
 0.000000e+00 0.000000e+00 4.712389e+00 3.141593e+00 0.000000e+00
 0.000000e+00 0.000000e+00 0.000000e+00 1.570796e+00 0.000000e+00
 0.000000e+00 0.000000e+00 3.141593e+00 1.570796e+00 0.000000e+00
 0.000000e+00 0.000000e+00 4.712389e+00 0.000000e+00 0.000000e+00
 0.000000e+00 0.000000e+00 4.712389e+00 3.141593e+00 0.000000e+00
 0.000000e+00 0.000000e+00 0.000000e+00 1.570796e+00 0.000000e+00
 0.000000e+00 0.000000e+00 3.141593e+00 1.570796e+00 0.000000e+00
 0.000000e+00 0.000000e+00 4.712389e+00 0.000000e+00 0.000000e+00
 0.000000e+00 0.000000e+00 4.712389e+00 3.141593e+00 0.000000e+00
 0.000000e+00 0.000000e+00 0.000000e+00 1.570796e+00 0.000000e+00
 0.000000e+00 0.000000e+00 3.141593e+00 1.570796e+00 0.000000e+00
 0.000000e+00 0.000000e+00 4.712389e+00 0.000000e+00 0.000000e+00
 0.000000e+00 0.000000e+00 4.712389e+00 3.141593e+00 0.000000e+00
 0.000000e+00 0.000000e+00 0.000000e+00 1.570796e+00 0.000000e+00
 0.000000e+00 0.000000e+00 3.141593e+00 1.570796e+00 0.000000e+00
 0.000000e+00 0.000000e+00 4.712389e+00 0.000000e+00 0.000000e+00
 0.000000e+00 0.000000e+00 4.712389e+00 3.141593e+00 0.000000e+00
 0.000000e+00 0.000000e+00 0.000000e+00 1.570796e+00 0.000000e+00
 0.000000e+00 0.000000e+00 3.141593e+00 1.570796e+00 0.000000e+00
 0.000000e+00 0.000000e+00 4.712389e+00 0.000000e+00 0.000000e+00
 0.000000e+00 0.000000e+00 4.712389e+00 3.141593e+00 0.000000e+00
 0.000000e+00 0.000000e+00 0.000000e+00 1.570796e+00 0.000000e+00
 0.000000e+00 0.000000e+00 3.141593e+00 1.570796e+00 0.000000e+00
 0.000000e+00 0.000000e+00 4.712389e+00 0.000000e+00 0.000000e+00
 0.000000e+00 0.000000e+00 4.712389e+00 3.141593e+00 0.000000e+00
 0.000000e+00 0.000000e+00 0.000000e+00 1.570796e+00 0.000000e+00
 0.000000e+00 0.000000e+00 3.141593e+00 1.570796e+00 0.000000e+00
 0.000000e+00 0.000000e+00 4.712389e+00 0.000000e+00 0.000000e+00
 0.000000e+00 0.000000e+00 4.712389e+00 3.141593e+00 0.000000e+00
 0.000000e+00 0.000000e+00 0.000000e+00 1.570796e+00 0.000000e+00
 0.000000e+00 0.000000e+00 3.141593e+00 1.570796e+00 0.000000e+00
 0.000000e+00 0.000000e+00 4.712389e+00 0.000000e+00 0.000000e+00
 0.000000e+00 0.000000e+00 4.712389e+00 3.141593e+00 0.000000e+00
 0.000000e+00 0.000000e+00 0.000000e+00 1.570796e+00 0.000000e+00
 0.000000e+00 0.000000e+00 3.141593e+00 1.570796e+00 0.000000e+00
 0.000000e+00 0.000000e+00 4.712389e+00 0.000000e+00 0.000000e+00
 0.000000e+00 0.000000e+00 4.712389e+00 3.141593e+00 0.000000e+00
 0.000000e+00 0.000000e+00 0.000000e+00 1.570796e+00 0.000000e+00
 0.000000e+00 0.000000e+00 3.141593e+00 1.570796e+00 0.000000e+00
 0.000000e+00 0.000000e+00 4.712389e+00 0.000000e+00 0.000000e+00
 0.000000e+00 0.000000e+00 4.712389e+00 3.141593e+00 0.000000e+00
 0.000000e+00 0.000000e+00 0.000000e+00 1.570796e+00 0.000000e+00
 0.000000e+00 0.000000e+00 3.141593e+00 1.570796e+00 0.000000e+00
 0.000000e+00 0.000000e+00 4.712389e+00 0.000000e+00 0.000000e+00
 0.000000e+00 0.000000e+00 4.712389e+00 3.141593e+00 0.000000e+00
 0.000000e+00 0.000000e+00 0.000000e+00 1.570796e+00 0.000000e+00
 0.000000e+00 0.000000e+00 3.141593e+00 1.570796e+00 0.000000e+00
 0.000000e+00 0.000000e+00 4.712389e+00 0.000000e+00 0.000000e+00
 0.000000e+00 0.000000e+00 4.712389e+00 3.141593e+00 0.000000e+00
 0.000000e+00 0.000000e+00 0.000000e+00 1.570796e+00 0.000000e+00
 0.000000e+00 0.000000e+00 3.141593e+00 1.570796e+00 0.000000e+00
 0.000000e+00 0.000000e+00 4.712389e+00 0.000000e+00 0.000000e+00
 0.000000e+00 0.000000e+00 4.712389e+00 3.141593e+00 0.000000e+00
 0.000000e+00 0.000000e+00 0.000000e+00 1.570796e+00 0.000000e+00
 0.000000e+00 0.000000e+00 3.141593e+00 1.570796e+00 0.000000e+00
 0.000000e+00 0.000000e+00 4.712389e+00 0.000000e+00 0.000000e+00
 0.000000e+00 0.000000e+00 4.712389e+00 3.141593e+00 0.000000e+00
 0.000000e+00 0.000000e+00 0.000000e+00 1.570796e+00 0.000000e+00
 0.000000e+00 0.000000e+00 3.141593e+00 1.570796e+00 0.000000e+00
 0.000000e+00 0.000000e+00 4.712389e+00 0.000000e+00 0.000000e+00
 0.000000e+00 0.000000e+00 4.712389e+00 3.141593e+00 0.000000e+00
 0.000000e+00 0.000000e+00 0.000000e+00 1.570796e+00 0.000000e+00
 0.000000e+00 0.000000e+00 3.141593e+00 1.570796e+00 0.000000e+00
 0.000000e+00 0.000000e+00 4.712389e+00 0.000000e+00 0.000000e+00
 0.000000e+00 0.000000e+00 4.712389e+00 3.141593e+00 0.000000e+00
 0.000000e+00 0.000000e+00 0.000000e+00 1.570796e+00 0.000000e+00
 0.000000e+00 0.000000e+00 3.141593e+00 1.570796e+00 0.000000e+00
 0.000000e+00 0.000000e+00 4.712389e+00 0.000000e+00 0.000000e+00
 0.000000e+00 0.000000e+00 4.712389e+00 3.141593e+00 0.000000e+00
 0.000000e+00 0.000000e+00 0.000000e+00 1.570796e+00 0.000000e+00
 0.000000e+00 0.000000e+00 3.141593e+00 1.570796e+00 0.000000e+00
 0.000000e+00 0.000000e+00 4.712389e+00 0.000000e+00 0.000000e+00
 0.000000e+00 0.000000e+00 4.712389e+00 3.141593e+00 0.000000e+00
 0.000000e+00 0.000000e+00 0.000000e+00 1.570796e+00 0.000000e+00
 0.000000e+00 0.000000e+00 3.141593e+00 1.570796e+00 0.000000e+00
 0.000000e+00 0.000000e+00 4.712389e+00 0.000000e+00 0.000000e+00
 0.000000e+00 0.000000e+00 4.712389e+00 3.141593e+00 0.000000e+00
 0.000000e+00 0.000000e+00 0.000000e+00 1.570796e+00 0.000000e+00
 0.000000e+00 0.000000e+00 3.141593e+00 1.570796e+00 0.000000e+00
 0.000000e+00 0.000000e+00 4.712389e+00 0.000000e+00 0.000000e+00
 0.000000e+00 0.000000e+00 4.712389e+00 3.141593e+00 0.000000e+00
 0.000000e+00 0.000000e+00 0.000000e+00 1.570796e+00 0.000000e+00
 0.000000e+00 0.000000e+00 3.141593e+00 1.570796e+00 0.000000e+00
 0.000000e+00 0.000000e+00 4.712389e+00 0.000000e+00 0.000000e+00
 0.000000e+00 0.000000e+00 4.712389e+00 3.141593e+00 0.000000e+00
 0.000000e+00 0.000000e+00 0.000000e+00 1.570796e+00 0.000000e+00
 0.000000e+00 0.000000e+00 3.141593e+00 1.570796e+00 0.000000e+00
 0.000000e+00 0.000000e+00 4.712389e+00 0.000000e+00 0.000000e+00
 0.000000e+00 0.000000e+00 4.712389e+00 3.141593e+00 0.000000e+00
 0.000000e+00 0.000000e+00 0.000000e+00 1.570796e+00
 0.000000e+00 0.000000e+00 3.141593e+00 1.570796e+00
 0.000000e+00 0.000000e+00 4.712389e+00 0.000000e+00
 0.000000e+00 0.000000e+00 4.712389e+00 3.141593e+00
INTERNAL  1.000000e+00  (FREE)  -1  DL Layer 1
 0.000000e+00 0.000000e+00 0.000000e+00 0.000000e+00
INTERNAL  1.000000e+00  (FREE)  -1  DL Layer 2
 0.000000e+00 0.000000e+00 0.000000e+00 0.000000e+00
INTERNAL  1.000000e+00  (FREE)  -1  DL Layer 3
 0.000000e+00 0.000000e+00 0.000000e+00 0.000000e+00
INTERNAL  1.000000e+00  (FREE)  -1  DL Layer 4
 0.000000e+00 0.000000e+00 0.000000e+00 0.000000e+00
INTERNAL  1.000000e+00  (FREE)  -1  DL Layer 5
 0.000000e+00 0.000000e+00 0.000000e+00 0.000000e+00
INTERNAL  1.000000e+00  (FREE)  -1  DL Layer 6
 0.000000e+00 0.000000e+00 0.000000e+00 0.000000e+00
INTERNAL  1.000000e+00  (FREE)  -1  DL Layer 7
 0.000000e+00 0.000000e+00 0.000000e+00 0.000000e+00
INTERNAL  1.000000e+00  (FREE)  -1  DL Layer 8
 0.000000e+00 0.000000e+00 0.000000e+00 0.000000e+00
INTERNAL  1.000000e+00  (FREE)  -1  DL Layer 9
 0.000000e+00 0.000000e+00 0.000000e+00 0.000000e+00
INTERNAL  1.000000e+00  (FREE)  -1  DL Layer 10
 0.000000e+00 0.000000e+00 0.000000e+00 0.000000e+00
INTERNAL  1.000000e+00  (FREE)  -1  DL Layer 11
 0.000000e+00 0.000000e+00 0.000000e+00 0.000000e+00
INTERNAL  1.000000e+00  (FREE)  -1  DL Layer 12
 0.000000e+00 0.000000e+00 0.000000e+00 0.000000e+00
INTERNAL  1.000000e+00  (FREE)  -1  DL Layer 13
 0.000000e+00 0.000000e+00 0.000000e+00 0.000000e+00
INTERNAL  1.000000e+00  (FREE)  -1  DL Layer 14
 0.000000e+00 0.000000e+00 0.000000e+00 0.000000e+00
INTERNAL  1.000000e+00  (FREE)  -1  DL Layer 15
 0.000000e+00 0.000000e+00 0.000000e+00 0.000000e+00
INTERNAL  1.000000e+00  (FREE)  -1  DL Layer 16
 0.000000e+00 0.000000e+00 0.000000e+00 0.000000e+00
INTERNAL  1.000000e+00  (FREE)  -1  DL Layer 17
 0.000000e+00 0.000000e+00 0.000000e+00 0.000000e+00
INTERNAL  1.000000e+00  (FREE)  -1  DL Layer 18
 0.000000e+00 0.000000e+00 0.000000e+00 0.000000e+00
INTERNAL  1.000000e+00  (FREE)  -1  DL Layer 19
 0.000000e+00 0.000000e+00 0.000000e+00 0.000000e+00
INTERNAL  1.000000e+00  (FREE)  -1  DL Layer 20
 0.000000e+00 0.000000e+00 0.000000e+00 0.000000e+00
INTERNAL  1.000000e+00  (FREE)  -1  DL Layer 21
 0.000000e+00 0.000000e+00 0.000000e+00 0.000000e+00
INTERNAL  1.000000e+00  (FREE)  -1  DL Layer 22
 0.000000e+00 0.000000e+00 0.000000e+00 0.000000e+00
INTERNAL  1.000000e+00  (FREE)  -1  DL Layer 23
 0.000000e+00 0.000000e+00 0.000000e+00 0.000000e+00
INTERNAL  1.000000e+00  (FREE)  -1  DL Layer 24
 0.000000e+00 0.000000e+00 0.000000e+00 0.000000e+00
INTERNAL  1.000000e+00  (FREE)  -1  DL Layer 25
 0.000000e+00 0.000000e+00 0.000000e+00 0.000000e+00
INTERNAL  1.000000e+00  (FREE)  -1  DL Layer 26
 0.000000e+00 0.000000e+00 0.000000e+00 0.000000e+00
INTERNAL  1.000000e+00  (FREE)  -1  DL Layer 27
 0.000000e+00 0.000000e+00 0.000000e+00 0.000000e+00
INTERNAL  1.000000e+00  (FREE)  -1  DL Layer 28
 0.000000e+00 0.000000e+00 0.000000e+00 0.000000e+00
INTERNAL  1.000000e+00  (FREE)  -1  DL Layer 29
 0.000000e+00 0.000000e+00 0.000000e+00 0.000000e+00
INTERNAL  1.000000e+00  (FREE)  -1  DL Layer 30
 0.000000e+00 0.000000e+00 0.000000e+00 0.000000e+00
CONSTANT  0.000000e+00              DT Layer 1
CONSTANT  0.000000e+00              DT Layer 2
CONSTANT  0.000000e+00              DT Layer 3
CONSTANT  0.000000e+00              DT Layer 4
CONSTANT  0.000000e+00              DT Layer 5
CONSTANT  0.000000e+00              DT Layer 6
CONSTANT  0.000000e+00              DT Layer 7
CONSTANT  0.000000e+00              DT Layer 8
CONSTANT  0.000000e+00              DT Layer 9
CONSTANT  0.000000e+00              DT Layer 10
CONSTANT  0.000000e+00              DT Layer 11
CONSTANT  0.000000e+00              DT Layer 12
CONSTANT  0.000000e+00              DT Layer 13
CONSTANT  0.000000e+00              DT Layer 14
CONSTANT  0.000000e+00              DT Layer 15
CONSTANT  0.000000e+00              DT Layer 16
CONSTANT  0.000000e+00              DT Layer 17
CONSTANT  0.000000e+00              DT Layer 18
CONSTANT  0.000000e+00              DT Layer 19
CONSTANT  0.000000e+00              DT Layer 20
CONSTANT  0.000000e+00              DT Layer 21
CONSTANT  0.000000e+00              DT Layer 22
CONSTANT  0.000000e+00              DT Layer 23
CONSTANT  0.000000e+00              DT Layer 24
CONSTANT  0.000000e+00              DT Layer 25
CONSTANT  0.000000e+00              DT Layer 26
CONSTANT  0.000000e+00              DT Layer 27
CONSTANT  0.000000e+00              DT Layer 28
CONSTANT  0.000000e+00              DT Layer 29
INTERNAL  1.000000e+00  (FREE)  -1  DT Layer 30
 0.000000e+00 0.000000e+00 0.000000e+00 0.000000e+00
CONSTANT  0.000000e+00              ADSORB Species 1 Layer 1
CONSTANT  0.000000e+00              ADSORB Species 1 Layer 2
CONSTANT  0.000000e+00              ADSORB Species 1 Layer 3
CONSTANT  0.000000e+00              ADSORB Species 1 Layer 4
CONSTANT  0.000000e+00              ADSORB Species 1 Layer 5
CONSTANT  0.000000e+00              ADSORB Species 1 Layer 6
CONSTANT  0.000000e+00              ADSORB Species 1 Layer 7
CONSTANT  0.000000e+00              ADSORB Species 1 Layer 8
CONSTANT  0.000000e+00              ADSORB Species 1 Layer 9
CONSTANT  0.000000e+00              ADSORB Species 1 Layer 10
CONSTANT  0.000000e+00              ADSORB Species 1 Layer 11
CONSTANT  0.000000e+00              ADSORB Species 1 Layer 12
CONSTANT  0.000000e+00              ADSORB Species 1 Layer 13
CONSTANT  0.000000e+00              ADSORB Species 1 Layer 14
CONSTANT  0.000000e+00              ADSORB Species 1 Layer 15
CONSTANT  0.000000e+00              ADSORB Species 1 Layer 16
CONSTANT  0.000000e+00              ADSORB Species 1 Layer 17
CONSTANT  0.000000e+00              ADSORB Species 1 Layer 18
CONSTANT  0.000000e+00              ADSORB Species 1 Layer 19
CONSTANT  0.000000e+00              ADSORB Species 1 Layer 20
CONSTANT  0.000000e+00              ADSORB Species 1 Layer 21
CONSTANT  0.000000e+00              ADSORB Species 1 Layer 22
CONSTANT  0.000000e+00              ADSORB Species 1 Layer 23
CONSTANT  0.000000e+00              ADSORB Species 1 Layer 24
CONSTANT  0.000000e+00              ADSORB Species 1 Layer 25
CONSTANT  0.000000e+00              ADSORB Species 1 Layer 26
CONSTANT  0.000000e+00              ADSORB Species 1 Layer 27
CONSTANT  0.000000e+00              ADSORB Species 1 Layer 28
CONSTANT  0.000000e+00              ADSORB Species 1 Layer 29
INTERNAL  1.000000e+00  (FREE)  -1  ADSORB Species 1 Layer 30
 0.000000e+00 0.000000e+00 0.000000e+00 0.000000e+00
CONSTANT  0.000000e+00              CONC Species 1 Layer 1
CONSTANT  0.000000e+00              CONC Species 1 Layer 2
CONSTANT  0.000000e+00              CONC Species 1 Layer 3
CONSTANT  0.000000e+00              CONC Species 1 Layer 4
CONSTANT  0.000000e+00              CONC Species 1 Layer 5
CONSTANT  0.000000e+00              CONC Species 1 Layer 6
CONSTANT  0.000000e+00              CONC Species 1 Layer 7
CONSTANT  0.000000e+00              CONC Species 1 Layer 8
CONSTANT  0.000000e+00              CONC Species 1 Layer 9
CONSTANT  0.000000e+00              CONC Species 1 Layer 10
CONSTANT  0.000000e+00              CONC Species 1 Layer 11
CONSTANT  0.000000e+00              CONC Species 1 Layer 12
CONSTANT  0.000000e+00              CONC Species 1 Layer 13
CONSTANT  0.000000e+00              CONC Species 1 Layer 14
CONSTANT  0.000000e+00              CONC Species 1 Layer 15
CONSTANT  0.000000e+00              CONC Species 1 Layer 16
CONSTANT  0.000000e+00              CONC Species 1 Layer 17
CONSTANT  0.000000e+00              CONC Species 1 Layer 18
CONSTANT  0.000000e+00              CONC Species 1 Layer 19
CONSTANT  0.000000e+00              CONC Species 1 Layer 20
CONSTANT  0.000000e+00              CONC Species 1 Layer 21
CONSTANT  0.000000e+00              CONC Species 1 Layer 22
CONSTANT  0.000000e+00              CONC Species 1 Layer 23
CONSTANT  0.000000e+00              CONC Species 1 Layer 24
CONSTANT  0.000000e+00              CONC Species 1 Layer 25
CONSTANT  0.000000e+00              CONC Species 1 Layer 26
CONSTANT  0.000000e+00              CONC Species 1 Layer 27
CONSTANT  0.000000e+00              CONC Species 1 Layer 28
CONSTANT  0.000000e+00              CONC Species 1 Layer 29
INTERNAL  1.000000e+00  (FREE)  -1  CONC Species 1 Layer 30
 0.000000e+00 0.000000e+00 0.000000e+00 0.000000e+00
