# MODFLOW-USG Layer Property Flow (LPF) Package
 50 -1.000000e+30 0 0      CONSTANTCV NOVFC
 4 4 4 4 4 4 4 4 4 4 4 4 4 4 4 4 4 4 4 4 4 4 4 4 4 4 4 4 4 4
 0 0 0 0 0 0 0 0 0 0 0 0 0 0 0 0 0 0 0 0 0 0 0 0 0 0 0 0 0 0
 1.000000e+00
 1.000000e+00
 1.000000e+00
 1.000000e+00
 1.000000e+00
 1.000000e+00
 1.000000e+00
 1.000000e+00
 1.000000e+00
 1.000000e+00
 1.000000e+00
 1.000000e+00
 1.000000e+00
 1.000000e+00
 1.000000e+00
 1.000000e+00
 1.000000e+00
 1.000000e+00
 1.000000e+00
 1.000000e+00 1.000000e+00
 1.000000e+00
 1.000000e+00
 1.000000e+00
 1.000000e+00
 1.000000e+00
 1.000000e+00
 1.000000e+00
 1.000000e+00
 1.000000e+00
 0 0 0 0 0 0 0 0 0 0 0 0 0 0 0 0 0 0 0 0 0 0 0 0 0 0 0 0 0 0
 0 0 0 0 0 0 0 0 0 0 0 0 0 0 0 0 0 0 0 0 0 0 0 0 0 0 0 0 0 0
INTERNAL  1.000000e+00  (FREE)  -1  Kx Layer 1
 1.000000e+02 1.000000e+02 1.000000e+02 1.000000e+02
INTERNAL  1.000000e+00  (FREE)  -1  Kz Layer 1
 1.000000e+02 1.000000e+02 1.000000e+02 1.000000e+02
INTERNAL  1.000000e+00  (FREE)  -1  Alpha Layer 1
 8.000000e-03 8.000000e-03 8.000000e-03 8.000000e-03
INTERNAL  1.000000e+00  (FREE)  -1  Beta Layer 1
 3.200000e+00 3.200000e+00 3.200000e+00 3.200000e+00
INTERNAL  1.000000e+00  (FREE)  -1  SR Layer 1
 2.364000e-01 2.364000e-01 2.364000e-01 2.364000e-01
INTERNAL  1.000000e+00  (FREE)  -1  BROOKS Layer 1
 4.000000e+00 4.000000e+00 4.000000e+00 4.000000e+00
INTERNAL  1.000000e+00  (FREE)  -1  Kx Layer 2
 1.000000e+02 1.000000e+02 1.000000e+02 1.000000e+02
INTERNAL  1.000000e+00  (FREE)  -1  Kz Layer 2
 1.000000e+02 1.000000e+02 1.000000e+02 1.000000e+02
INTERNAL  1.000000e+00  (FREE)  -1  Alpha Layer 2
 8.000000e-03 8.000000e-03 8.000000e-03 8.000000e-03
INTERNAL  1.000000e+00  (FREE)  -1  Beta Layer 2
 3.200000e+00 3.200000e+00 3.200000e+00 3.200000e+00
INTERNAL  1.000000e+00  (FREE)  -1  SR Layer 2
 2.364000e-01 2.364000e-01 2.364000e-01 2.364000e-01
INTERNAL  1.000000e+00  (FREE)  -1  BROOKS Layer 2
 4.000000e+00 4.000000e+00 4.000000e+00 4.000000e+00
INTERNAL  1.000000e+00  (FREE)  -1  Kx Layer 3
 1.000000e+02 1.000000e+02 1.000000e+02 1.000000e+02
INTERNAL  1.000000e+00  (FREE)  -1  Kz Layer 3
 1.000000e+02 1.000000e+02 1.000000e+02 1.000000e+02
INTERNAL  1.000000e+00  (FREE)  -1  Alpha Layer 3
 8.000000e-03 8.000000e-03 8.000000e-03 8.000000e-03
INTERNAL  1.000000e+00  (FREE)  -1  Beta Layer 3
 3.200000e+00 3.200000e+00 3.200000e+00 3.200000e+00
INTERNAL  1.000000e+00  (FREE)  -1  SR Layer 3
 2.364000e-01 2.364000e-01 2.364000e-01 2.364000e-01
INTERNAL  1.000000e+00  (FREE)  -1  BROOKS Layer 3
 4.000000e+00 4.000000e+00 4.000000e+00 4.000000e+00
INTERNAL  1.000000e+00  (FREE)  -1  Kx Layer 4
 1.000000e+02 1.000000e+02 1.000000e+02 1.000000e+02
INTERNAL  1.000000e+00  (FREE)  -1  Kz Layer 4
 1.000000e+02 1.000000e+02 1.000000e+02 1.000000e+02
INTERNAL  1.000000e+00  (FREE)  -1  Alpha Layer 4
 8.000000e-03 8.000000e-03 8.000000e-03 8.000000e-03
INTERNAL  1.000000e+00  (FREE)  -1  Beta Layer 4
 3.200000e+00 3.200000e+00 3.200000e+00 3.200000e+00
INTERNAL  1.000000e+00  (FREE)  -1  SR Layer 4
 2.364000e-01 2.364000e-01 2.364000e-01 2.364000e-01
INTERNAL  1.000000e+00  (FREE)  -1  BROOKS Layer 4
 4.000000e+00 4.000000e+00 4.000000e+00 4.000000e+00
INTERNAL  1.000000e+00  (FREE)  -1  Kx Layer 5
 1.000000e+02 1.000000e+02 1.000000e+02 1.000000e+02
INTERNAL  1.000000e+00  (FREE)  -1  Kz Layer 5
 1.000000e+02 1.000000e+02 1.000000e+02 1.000000e+02
INTERNAL  1.000000e+00  (FREE)  -1  Alpha Layer 5
 8.000000e-03 8.000000e-03 8.000000e-03 8.000000e-03
INTERNAL  1.000000e+00  (FREE)  -1  Beta Layer 5
 3.200000e+00 3.200000e+00 3.200000e+00 3.200000e+00
INTERNAL  1.000000e+00  (FREE)  -1  SR Layer 5
 2.364000e-01 2.364000e-01 2.364000e-01 2.364000e-01
INTERNAL  1.000000e+00  (FREE)  -1  BROOKS Layer 5
 4.000000e+00 4.000000e+00 4.000000e+00 4.000000e+00
INTERNAL  1.000000e+00  (FREE)  -1  Kx Layer 6
 1.000000e+02 1.000000e+02 1.000000e+02 1.000000e+02
INTERNAL  1.000000e+00  (FREE)  -1  Kz Layer 6
 1.000000e+02 1.000000e+02 1.000000e+02 1.000000e+02
INTERNAL  1.000000e+00  (FREE)  -1  Alpha Layer 6
 8.000000e-03 8.000000e-03 8.000000e-03 8.000000e-03
INTERNAL  1.000000e+00  (FREE)  -1  Beta Layer 6
 3.200000e+00 3.200000e+00 3.200000e+00 3.200000e+00
INTERNAL  1.000000e+00  (FREE)  -1  SR Layer 6
 2.364000e-01 2.364000e-01 2.364000e-01 2.364000e-01
INTERNAL  1.000000e+00  (FREE)  -1  BROOKS Layer 6
 4.000000e+00 4.000000e+00 4.000000e+00 4.000000e+00
INTERNAL  1.000000e+00  (FREE)  -1  Kx Layer 7
 1.000000e+02 1.000000e+02 1.000000e+02 1.000000e+02
INTERNAL  1.000000e+00  (FREE)  -1  Kz Layer 7
 1.000000e+02 1.000000e+02 1.000000e+02 1.000000e+02
INTERNAL  1.000000e+00  (FREE)  -1  Alpha Layer 7
 8.000000e-03 8.000000e-03 8.000000e-03 8.000000e-03
INTERNAL  1.000000e+00  (FREE)  -1  Beta Layer 7
 3.200000e+00 3.200000e+00 3.200000e+00 3.200000e+00
INTERNAL  1.000000e+00  (FREE)  -1  SR Layer 7
 2.364000e-01 2.364000e-01 2.364000e-01 2.364000e-01
INTERNAL  1.000000e+00  (FREE)  -1  BROOKS Layer 7
 4.000000e+00 4.000000e+00 4.000000e+00 4.000000e+00
INTERNAL  1.000000e+00  (FREE)  -1  Kx Layer 8
 1.000000e+02 1.000000e+02 1.000000e+02 1.000000e+02
INTERNAL  1.000000e+00  (FREE)  -1  Kz Layer 8
 1.000000e+02 1.000000e+02 1.000000e+02 1.000000e+02
INTERNAL  1.000000e+00  (FREE)  -1  Alpha Layer 8
 8.000000e-03 8.000000e-03 8.000000e-03 8.000000e-03
INTERNAL  1.000000e+00  (FREE)  -1  Beta Layer 8
 3.200000e+00 3.200000e+00 3.200000e+00 3.200000e+00
INTERNAL  1.000000e+00  (FREE)  -1  SR Layer 8
 2.364000e-01 2.364000e-01 2.364000e-01 2.364000e-01
INTERNAL  1.000000e+00  (FREE)  -1  BROOKS Layer 8
 4.000000e+00 4.000000e+00 4.000000e+00 4.000000e+00
INTERNAL  1.000000e+00  (FREE)  -1  Kx Layer 9
 1.000000e+02 1.000000e+02 1.000000e+02 1.000000e+02
INTERNAL  1.000000e+00  (FREE)  -1  Kz Layer 9
 1.000000e+02 1.000000e+02 1.000000e+02 1.000000e+02
INTERNAL  1.000000e+00  (FREE)  -1  Alpha Layer 9
 8.000000e-03 8.000000e-03 8.000000e-03 8.000000e-03
INTERNAL  1.000000e+00  (FREE)  -1  Beta Layer 9
 3.200000e+00 3.200000e+00 3.200000e+00 3.200000e+00
INTERNAL  1.000000e+00  (FREE)  -1  SR Layer 9
 2.364000e-01 2.364000e-01 2.364000e-01 2.364000e-01
INTERNAL  1.000000e+00  (FREE)  -1  BROOKS Layer 9
 4.000000e+00 4.000000e+00 4.000000e+00 4.000000e+00
INTERNAL  1.000000e+00  (FREE)  -1  Kx Layer 10
 1.000000e+02 1.000000e+02 1.000000e+02 1.000000e+02
INTERNAL  1.000000e+00  (FREE)  -1  Kz Layer 10
 1.000000e+02 1.000000e+02 1.000000e+02 1.000000e+02
INTERNAL  1.000000e+00  (FREE)  -1  Alpha Layer 10
 8.000000e-03 8.000000e-03 8.000000e-03 8.000000e-03
INTERNAL  1.000000e+00  (FREE)  -1  Beta Layer 10
 3.200000e+00 3.200000e+00 3.200000e+00 3.200000e+00
INTERNAL  1.000000e+00  (FREE)  -1  SR Layer 10
 2.364000e-01 2.364000e-01 2.364000e-01 2.364000e-01
INTERNAL  1.000000e+00  (FREE)  -1  BROOKS Layer 10
 4.000000e+00 4.000000e+00 4.000000e+00 4.000000e+00
INTERNAL  1.000000e+00  (FREE)  -1  Kx Layer 11
 1.000000e+02 1.000000e+02 1.000000e+02 1.000000e+02
INTERNAL  1.000000e+00  (FREE)  -1  Kz Layer 11
 1.000000e+02 1.000000e+02 1.000000e+02 1.000000e+02
INTERNAL  1.000000e+00  (FREE)  -1  Alpha Layer 11
 8.000000e-03 8.000000e-03 8.000000e-03 8.000000e-03
INTERNAL  1.000000e+00  (FREE)  -1  Beta Layer 11
 3.200000e+00 3.200000e+00 3.200000e+00 3.200000e+00
INTERNAL  1.000000e+00  (FREE)  -1  SR Layer 11
 2.364000e-01 2.364000e-01 2.364000e-01 2.364000e-01
INTERNAL  1.000000e+00  (FREE)  -1  BROOKS Layer 11
 4.000000e+00 4.000000e+00 4.000000e+00 4.000000e+00
INTERNAL  1.000000e+00  (FREE)  -1  Kx Layer 12
 1.000000e+02 1.000000e+02 1.000000e+02 1.000000e+02
INTERNAL  1.000000e+00  (FREE)  -1  Kz Layer 12
 1.000000e+02 1.000000e+02 1.000000e+02 1.000000e+02
INTERNAL  1.000000e+00  (FREE)  -1  Alpha Layer 12
 8.000000e-03 8.000000e-03 8.000000e-03 8.000000e-03
INTERNAL  1.000000e+00  (FREE)  -1  Beta Layer 12
 3.200000e+00 3.200000e+00 3.200000e+00 3.200000e+00
INTERNAL  1.000000e+00  (FREE)  -1  SR Layer 12
 2.364000e-01 2.364000e-01 2.364000e-01 2.364000e-01
INTERNAL  1.000000e+00  (FREE)  -1  BROOKS Layer 12
 4.000000e+00 4.000000e+00 4.000000e+00 4.000000e+00
INTERNAL  1.000000e+00  (FREE)  -1  Kx Layer 13
 1.000000e+02 1.000000e+02 1.000000e+02 1.000000e+02
INTERNAL  1.000000e+00  (FREE)  -1  Kz Layer 13
 1.000000e+02 1.000000e+02 1.000000e+02 1.000000e+02
INTERNAL  1.000000e+00  (FREE)  -1  Alpha Layer 13
 8.000000e-03 8.000000e-03 8.000000e-03 8.000000e-03
INTERNAL  1.000000e+00  (FREE)  -1  Beta Layer 13
 3.200000e+00 3.200000e+00 3.200000e+00 3.200000e+00
INTERNAL  1.000000e+00  (FREE)  -1  SR Layer 13
 2.364000e-01 2.364000e-01 2.364000e-01 2.364000e-01
INTERNAL  1.000000e+00  (FREE)  -1  BROOKS Layer 13
 4.000000e+00 4.000000e+00 4.000000e+00 4.000000e+00
INTERNAL  1.000000e+00  (FREE)  -1  Kx Layer 14
 1.000000e+02 1.000000e+02 1.000000e+02 1.000000e+02
INTERNAL  1.000000e+00  (FREE)  -1  Kz Layer 14
 1.000000e+02 1.000000e+02 1.000000e+02 1.000000e+02
INTERNAL  1.000000e+00  (FREE)  -1  Alpha Layer 14
 8.000000e-03 8.000000e-03 8.000000e-03 8.000000e-03
INTERNAL  1.000000e+00  (FREE)  -1  Beta Layer 14
 3.200000e+00 3.200000e+00 3.200000e+00 3.200000e+00
INTERNAL  1.000000e+00  (FREE)  -1  SR Layer 14
 2.364000e-01 2.364000e-01 2.364000e-01 2.364000e-01
INTERNAL  1.000000e+00  (FREE)  -1  BROOKS Layer 14
 4.000000e+00 4.000000e+00 4.000000e+00 4.000000e+00
INTERNAL  1.000000e+00  (FREE)  -1  Kx Layer 15
 1.000000e+02 1.000000e+02 1.000000e+02 1.000000e+02
INTERNAL  1.000000e+00  (FREE)  -1  Kz Layer 15
 1.000000e+02 1.000000e+02 1.000000e+02 1.000000e+02
INTERNAL  1.000000e+00  (FREE)  -1  Alpha Layer 15
 8.000000e-03 8.000000e-03 8.000000e-03 8.000000e-03
INTERNAL  1.000000e+00  (FREE)  -1  Beta Layer 15
 3.200000e+00 3.200000e+00 3.200000e+00 3.200000e+00
INTERNAL  1.000000e+00  (FREE)  -1  SR Layer 15
 2.364000e-01 2.364000e-01 2.364000e-01 2.364000e-01
INTERNAL  1.000000e+00  (FREE)  -1  BROOKS Layer 15
 4.000000e+00 4.000000e+00 4.000000e+00 4.000000e+00
INTERNAL  1.000000e+00  (FREE)  -1  Kx Layer 16
 1.000000e+02 1.000000e+02 1.000000e+02 1.000000e+02
INTERNAL  1.000000e+00  (FREE)  -1  Kz Layer 16
 1.000000e+02 1.000000e+02 1.000000e+02 1.000000e+02
INTERNAL  1.000000e+00  (FREE)  -1  Alpha Layer 16
 8.000000e-03 8.000000e-03 8.000000e-03 8.000000e-03
INTERNAL  1.000000e+00  (FREE)  -1  Beta Layer 16
 3.200000e+00 3.200000e+00 3.200000e+00 3.200000e+00
INTERNAL  1.000000e+00  (FREE)  -1  SR Layer 16
 2.364000e-01 2.364000e-01 2.364000e-01 2.364000e-01
INTERNAL  1.000000e+00  (FREE)  -1  BROOKS Layer 16
 4.000000e+00 4.000000e+00 4.000000e+00 4.000000e+00
INTERNAL  1.000000e+00  (FREE)  -1  Kx Layer 17
 1.000000e+02 1.000000e+02 1.000000e+02 1.000000e+02
INTERNAL  1.000000e+00  (FREE)  -1  Kz Layer 17
 1.000000e+02 1.000000e+02 1.000000e+02 1.000000e+02
INTERNAL  1.000000e+00  (FREE)  -1  Alpha Layer 17
 8.000000e-03 8.000000e-03 8.000000e-03 8.000000e-03
INTERNAL  1.000000e+00  (FREE)  -1  Beta Layer 17
 3.200000e+00 3.200000e+00 3.200000e+00 3.200000e+00
INTERNAL  1.000000e+00  (FREE)  -1  SR Layer 17
 2.364000e-01 2.364000e-01 2.364000e-01 2.364000e-01
INTERNAL  1.000000e+00  (FREE)  -1  BROOKS Layer 17
 4.000000e+00 4.000000e+00 4.000000e+00 4.000000e+00
INTERNAL  1.000000e+00  (FREE)  -1  Kx Layer 18
 1.000000e+02 1.000000e+02 1.000000e+02 1.000000e+02
INTERNAL  1.000000e+00  (FREE)  -1  Kz Layer 18
 1.000000e+02 1.000000e+02 1.000000e+02 1.000000e+02
INTERNAL  1.000000e+00  (FREE)  -1  Alpha Layer 18
 8.000000e-03 8.000000e-03 8.000000e-03 8.000000e-03
INTERNAL  1.000000e+00  (FREE)  -1  Beta Layer 18
 3.200000e+00 3.200000e+00 3.200000e+00 3.200000e+00
INTERNAL  1.000000e+00  (FREE)  -1  SR Layer 18
 2.364000e-01 2.364000e-01 2.364000e-01 2.364000e-01
INTERNAL  1.000000e+00  (FREE)  -1  BROOKS Layer 18
 4.000000e+00 4.000000e+00 4.000000e+00 4.000000e+00
INTERNAL  1.000000e+00  (FREE)  -1  Kx Layer 19
 1.000000e+02 1.000000e+02 1.000000e+02 1.000000e+02
INTERNAL  1.000000e+00  (FREE)  -1  Kz Layer 19
 1.000000e+02 1.000000e+02 1.000000e+02 1.000000e+02
INTERNAL  1.000000e+00  (FREE)  -1  Alpha Layer 19
 8.000000e-03 8.000000e-03 8.000000e-03 8.000000e-03
INTERNAL  1.000000e+00  (FREE)  -1  Beta Layer 19
 3.200000e+00 3.200000e+00 3.200000e+00 3.200000e+00
INTERNAL  1.000000e+00  (FREE)  -1  SR Layer 19
 2.364000e-01 2.364000e-01 2.364000e-01 2.364000e-01
INTERNAL  1.000000e+00  (FREE)  -1  BROOKS Layer 19
 4.000000e+00 4.000000e+00 4.000000e+00 4.000000e+00
INTERNAL  1.000000e+00  (FREE)  -1  Kx Layer 20
 1.000000e+02 1.000000e+02 1.000000e+02 1.000000e+02
INTERNAL  1.000000e+00  (FREE)  -1  Kz Layer 20
 1.000000e+02 1.000000e+02 1.000000e+02 1.000000e+02
INTERNAL  1.000000e+00  (FREE)  -1  Alpha Layer 20
 8.000000e-03 8.000000e-03 8.000000e-03 8.000000e-03
INTERNAL  1.000000e+00  (FREE)  -1  Beta Layer 20
 3.200000e+00 3.200000e+00 3.200000e+00 3.200000e+00
INTERNAL  1.000000e+00  (FREE)  -1  SR Layer 20
 2.364000e-01 2.364000e-01 2.364000e-01 2.364000e-01
INTERNAL  1.000000e+00  (FREE)  -1  BROOKS Layer 20
 4.000000e+00 4.000000e+00 4.000000e+00 4.000000e+00
INTERNAL  1.000000e+00  (FREE)  -1  Kx Layer 21
 1.000000e+02 1.000000e+02 1.000000e+02 1.000000e+02
INTERNAL  1.000000e+00  (FREE)  -1  Kz Layer 21
 1.000000e+02 1.000000e+02 1.000000e+02 1.000000e+02
INTERNAL  1.000000e+00  (FREE)  -1  Alpha Layer 21
 8.000000e-03 8.000000e-03 8.000000e-03 8.000000e-03
INTERNAL  1.000000e+00  (FREE)  -1  Beta Layer 21
 3.200000e+00 3.200000e+00 3.200000e+00 3.200000e+00
INTERNAL  1.000000e+00  (FREE)  -1  SR Layer 21
 2.364000e-01 2.364000e-01 2.364000e-01 2.364000e-01
INTERNAL  1.000000e+00  (FREE)  -1  BROOKS Layer 21
 4.000000e+00 4.000000e+00 4.000000e+00 4.000000e+00
INTERNAL  1.000000e+00  (FREE)  -1  Kx Layer 22
 1.000000e+02 1.000000e+02 1.000000e+02 1.000000e+02
INTERNAL  1.000000e+00  (FREE)  -1  Kz Layer 22
 1.000000e+02 1.000000e+02 1.000000e+02 1.000000e+02
INTERNAL  1.000000e+00  (FREE)  -1  Alpha Layer 22
 8.000000e-03 8.000000e-03 8.000000e-03 8.000000e-03
INTERNAL  1.000000e+00  (FREE)  -1  Beta Layer 22
 3.200000e+00 3.200000e+00 3.200000e+00 3.200000e+00
INTERNAL  1.000000e+00  (FREE)  -1  SR Layer 22
 2.364000e-01 2.364000e-01 2.364000e-01 2.364000e-01
INTERNAL  1.000000e+00  (FREE)  -1  BROOKS Layer 22
 4.000000e+00 4.000000e+00 4.000000e+00 4.000000e+00
INTERNAL  1.000000e+00  (FREE)  -1  Kx Layer 23
 1.000000e+02 1.000000e+02 1.000000e+02 1.000000e+02
INTERNAL  1.000000e+00  (FREE)  -1  Kz Layer 23
 1.000000e+02 1.000000e+02 1.000000e+02 1.000000e+02
INTERNAL  1.000000e+00  (FREE)  -1  Alpha Layer 23
 8.000000e-03 8.000000e-03 8.000000e-03 8.000000e-03
INTERNAL  1.000000e+00  (FREE)  -1  Beta Layer 23
 3.200000e+00 3.200000e+00 3.200000e+00 3.200000e+00
INTERNAL  1.000000e+00  (FREE)  -1  SR Layer 23
 2.364000e-01 2.364000e-01 2.364000e-01 2.364000e-01
INTERNAL  1.000000e+00  (FREE)  -1  BROOKS Layer 23
 4.000000e+00 4.000000e+00 4.000000e+00 4.000000e+00
INTERNAL  1.000000e+00  (FREE)  -1  Kx Layer 24
 1.000000e+02 1.000000e+02 1.000000e+02 1.000000e+02
INTERNAL  1.000000e+00  (FREE)  -1  Kz Layer 24
 1.000000e+02 1.000000e+02 1.000000e+02 1.000000e+02
INTERNAL  1.000000e+00  (FREE)  -1  Alpha Layer 24
 8.000000e-03 8.000000e-03 8.000000e-03 8.000000e-03
INTERNAL  1.000000e+00  (FREE)  -1  Beta Layer 24
 3.200000e+00 3.200000e+00 3.200000e+00 3.200000e+00
INTERNAL  1.000000e+00  (FREE)  -1  SR Layer 24
 2.364000e-01 2.364000e-01 2.364000e-01 2.364000e-01
INTERNAL  1.000000e+00  (FREE)  -1  BROOKS Layer 24
 4.000000e+00 4.000000e+00 4.000000e+00 4.000000e+00
INTERNAL  1.000000e+00  (FREE)  -1  Kx Layer 25
 1.000000e+02 1.000000e+02 1.000000e+02 1.000000e+02
INTERNAL  1.000000e+00  (FREE)  -1  Kz Layer 25
 1.000000e+02 1.000000e+02 1.000000e+02 1.000000e+02
INTERNAL  1.000000e+00  (FREE)  -1  Alpha Layer 25
 8.000000e-03 8.000000e-03 8.000000e-03 8.000000e-03
INTERNAL  1.000000e+00  (FREE)  -1  Beta Layer 25
 3.200000e+00 3.200000e+00 3.200000e+00 3.200000e+00
INTERNAL  1.000000e+00  (FREE)  -1  SR Layer 25
 2.364000e-01 2.364000e-01 2.364000e-01 2.364000e-01
INTERNAL  1.000000e+00  (FREE)  -1  BROOKS Layer 25
 4.000000e+00 4.000000e+00 4.000000e+00 4.000000e+00
INTERNAL  1.000000e+00  (FREE)  -1  Kx Layer 26
 1.000000e+02 1.000000e+02 1.000000e+02 1.000000e+02
INTERNAL  1.000000e+00  (FREE)  -1  Kz Layer 26
 1.000000e+02 1.000000e+02 1.000000e+02 1.000000e+02
INTERNAL  1.000000e+00  (FREE)  -1  Alpha Layer 26
 8.000000e-03 8.000000e-03 8.000000e-03 8.000000e-03
INTERNAL  1.000000e+00  (FREE)  -1  Beta Layer 26
 3.200000e+00 3.200000e+00 3.200000e+00 3.200000e+00
INTERNAL  1.000000e+00  (FREE)  -1  SR Layer 26
 2.364000e-01 2.364000e-01 2.364000e-01 2.364000e-01
INTERNAL  1.000000e+00  (FREE)  -1  BROOKS Layer 26
 4.000000e+00 4.000000e+00 4.000000e+00 4.000000e+00
INTERNAL  1.000000e+00  (FREE)  -1  Kx Layer 27
 1.000000e+02 1.000000e+02 1.000000e+02 1.000000e+02
INTERNAL  1.000000e+00  (FREE)  -1  Kz Layer 27
 1.000000e+02 1.000000e+02 1.000000e+02 1.000000e+02
INTERNAL  1.000000e+00  (FREE)  -1  Alpha Layer 27
 8.000000e-03 8.000000e-03 8.000000e-03 8.000000e-03
INTERNAL  1.000000e+00  (FREE)  -1  Beta Layer 27
 3.200000e+00 3.200000e+00 3.200000e+00 3.200000e+00
INTERNAL  1.000000e+00  (FREE)  -1  SR Layer 27
 2.364000e-01 2.364000e-01 2.364000e-01 2.364000e-01
INTERNAL  1.000000e+00  (FREE)  -1  BROOKS Layer 27
 4.000000e+00 4.000000e+00 4.000000e+00 4.000000e+00
INTERNAL  1.000000e+00  (FREE)  -1  Kx Layer 28
 1.000000e+02 1.000000e+02 1.000000e+02 1.000000e+02
INTERNAL  1.000000e+00  (FREE)  -1  Kz Layer 28
 1.000000e+02 1.000000e+02 1.000000e+02 1.000000e+02
INTERNAL  1.000000e+00  (FREE)  -1  Alpha Layer 28
 8.000000e-03 8.000000e-03 8.000000e-03 8.000000e-03
INTERNAL  1.000000e+00  (FREE)  -1  Beta Layer 28
 3.200000e+00 3.200000e+00 3.200000e+00 3.200000e+00
INTERNAL  1.000000e+00  (FREE)  -1  SR Layer 28
 2.364000e-01 2.364000e-01 2.364000e-01 2.364000e-01
INTERNAL  1.000000e+00  (FREE)  -1  BROOKS Layer 28
 4.000000e+00 4.000000e+00 4.000000e+00 4.000000e+00
INTERNAL  1.000000e+00  (FREE)  -1  Kx Layer 29
 1.000000e+02 1.000000e+02 1.000000e+02 1.000000e+02
INTERNAL  1.000000e+00  (FREE)  -1  Kz Layer 29
 1.000000e+02 1.000000e+02 1.000000e+02 1.000000e+02
INTERNAL  1.000000e+00  (FREE)  -1  Alpha Layer 29
 8.000000e-03 8.000000e-03 8.000000e-03 8.000000e-03
INTERNAL  1.000000e+00  (FREE)  -1  Beta Layer 29
 3.200000e+00 3.200000e+00 3.200000e+00 3.200000e+00
INTERNAL  1.000000e+00  (FREE)  -1  SR Layer 29
 2.364000e-01 2.364000e-01 2.364000e-01 2.364000e-01
INTERNAL  1.000000e+00  (FREE)  -1  BROOKS Layer 29
 4.000000e+00 4.000000e+00 4.000000e+00 4.000000e+00
INTERNAL  1.000000e+00  (FREE)  -1  Kx Layer 30
 1.000000e+02 1.000000e+02 1.000000e+02 1.000000e+02
INTERNAL  1.000000e+00  (FREE)  -1  Kz Layer 30
 1.000000e+02 1.000000e+02 1.000000e+02 1.000000e+02
INTERNAL  1.000000e+00  (FREE)  -1  Alpha Layer 30
 8.000000e-03 8.000000e-03 8.000000e-03 8.000000e-03
INTERNAL  1.000000e+00  (FREE)  -1  Beta Layer 30
 3.200000e+00 3.200000e+00 3.200000e+00 3.200000e+00
INTERNAL  1.000000e+00  (FREE)  -1  SR Layer 30
 2.364000e-01 2.364000e-01 2.364000e-01 2.364000e-01
INTERNAL  1.000000e+00  (FREE)  -1  BROOKS Layer 30
 4.000000e+00 4.000000e+00 4.000000e+00 4.000000e+00
