# MODFLOW-USGs Constant-Head Boundary Package (CHD)
         4 AUX C01 
 4    Stress Period 1
 119   16.000000  16.000000 0.000000e+00
 117   16.000000  16.000000 0.000000e+00
 120   16.000000  16.000000 0.000000e+00
 118   16.000000  16.000000 0.000000e+00
