# DIS package for  MODFLOW-NWT, generated by Flopy.
         3       200       144         1         4         2
  0  0  0
OPEN/CLOSE                      .\delr.ref               1 (144E15.6) -1 delr                          
OPEN/CLOSE                      .\delc.ref               1 (200E15.6) -1 delc                          
OPEN/CLOSE                 .\model_top.ref               1 (144E15.6) -1 model_top                     
OPEN/CLOSE              .\botm_layer_1.ref               1 (144E15.6) -1 botm layer 1                  
OPEN/CLOSE              .\botm_layer_2.ref               1 (144E15.6) -1 botm layer 2                  
OPEN/CLOSE              .\botm_layer_3.ref               1 (144E15.6) -1 botm layer 3                  
      1.000000             4  1.000000  SS 
