# MODFLOW2000 Basic Package
#MODFLOW Data Set Created by Groundwater Vistas
#   

         1         1(25I3)                      -1     IBOUND Layer   1
 -1  1  1  1  1  1  1  1  1  1  1  1  1  1  1  1  1  1  1 -1
         1         1(25I3)                      -1     IBOUND Layer   2
 -1  1  1  1  1  1  1  1  1  1  1  1  1  1  1  1  1  1  1 -1
         1         1(25I3)                      -1     IBOUND Layer   3
 -1  1  1  1  1  1  1  1  1  1  1  1  1  1  1  1  1  1  1 -1
         1         1(25I3)                      -1     IBOUND Layer   4
 -1  1  1  1  1  1  1  1  1  1  1  1  1  1  1  1  1  1  1 -1
         1         1(25I3)                      -1     IBOUND Layer   5
 -1  1  1  1  1  1  1  1  1  1  1  1  1  1  1  1  1  1  1 -1
         1         1(25I3)                      -1     IBOUND Layer   6
 -1  1  1  1  1  1  1  1  1  1  1  1  1  1  1  1  1  1  1 -1
         1         1(25I3)                      -1     IBOUND Layer   7
 -1  1  1  1  1  1  1  1  1  1  1  1  1  1  1  1  1  1  1 -1
         1         1(25I3)                      -1     IBOUND Layer   8
 -1  1  1  1  1  1  1  1  1  1  1  1  1  1  1  1  1  1  1 -1
         1         1(25I3)                      -1     IBOUND Layer   9
 -1  1  1  1  1  1  1  1  1  1  1  1  1  1  1  1  1  1  1 -1
         1         1(25I3)                      -1     IBOUND Layer  10
 -1  1  1  1  1  1  1  1  1  1  1  1  1  1  1  1  1  1  1 -1
         1         1(25I3)                      -1     IBOUND Layer  11
 -1  1  1  1  1  1  1  1  1  1  1  1  1  1  1  1  1  1  1 -1
         1         1(25I3)                      -1     IBOUND Layer  12
 -1  1  1  1  1  1  1  1  1  1  1  1  1  1  1  1  1  1  1 -1
         1         1(25I3)                      -1     IBOUND Layer  13
 -1  1  1  1  1  1  1  1  1  1  1  1  1  1  1  1  1  1  1 -1
         1         1(25I3)                      -1     IBOUND Layer  14
 -1  1  1  1  1  1  1  1  1  1  1  1  1  1  1  1  1  1  1 -1
         1         1(25I3)                      -1     IBOUND Layer  15
 -1  1  1  1  1  1  1  1  1  1  1  1  1  1  1  1  1  1  1 -1
         1         1(25I3)                      -1     IBOUND Layer  16
 -1  1  1  1  1  1  1  1  1  1  1  1  1  1  1  1  1  1  1 -1
         1         1(25I3)                      -1     IBOUND Layer  17
 -1  1  1  1  1  1  1  1  1  1  1  1  1  1  1  1  1  1  1 -1
         1         1(25I3)                      -1     IBOUND Layer  18
 -1  1  1  1  1  1  1  1  1  1  1  1  1  1  1  1  1  1  1 -1
         1         1(25I3)                      -1     IBOUND Layer  19
 -1  1  1  1  1  1  1  1  1  1  1  1  1  1  1  1  1  1  1 -1
         1         1(25I3)                      -1     IBOUND Layer  20
 -1  1  1  1  1  1  1  1  1  1  1  1  1  1  1  1  1  1  1 -1
9.9900e+02
         1     1.000(10e12.4)                   -1     STARTING HEADS Layer   1
  1.0000e+00  0.0000e+00  0.0000e+00  0.0000e+00  0.0000e+00  0.0000e+00  0.0000e+00  0.0000e+00  0.0000e+00  0.0000e+00
  0.0000e+00  0.0000e+00  0.0000e+00  0.0000e+00  0.0000e+00  0.0000e+00  0.0000e+00  0.0000e+00  0.0000e+00  0.0000e+00
         1     1.000(10e12.4)                   -1     STARTING HEADS Layer   2
  1.0000e+00  0.0000e+00  0.0000e+00  0.0000e+00  0.0000e+00  0.0000e+00  0.0000e+00  0.0000e+00  0.0000e+00  0.0000e+00
  0.0000e+00  0.0000e+00  0.0000e+00  0.0000e+00  0.0000e+00  0.0000e+00  0.0000e+00  0.0000e+00  0.0000e+00  0.0000e+00
         1     1.000(10e12.4)                   -1     STARTING HEADS Layer   3
  1.0000e+00  0.0000e+00  0.0000e+00  0.0000e+00  0.0000e+00  0.0000e+00  0.0000e+00  0.0000e+00  0.0000e+00  0.0000e+00
  0.0000e+00  0.0000e+00  0.0000e+00  0.0000e+00  0.0000e+00  0.0000e+00  0.0000e+00  0.0000e+00  0.0000e+00  0.0000e+00
         1     1.000(10e12.4)                   -1     STARTING HEADS Layer   4
  1.0000e+00  0.0000e+00  0.0000e+00  0.0000e+00  0.0000e+00  0.0000e+00  0.0000e+00  0.0000e+00  0.0000e+00  0.0000e+00
  0.0000e+00  0.0000e+00  0.0000e+00  0.0000e+00  0.0000e+00  0.0000e+00  0.0000e+00  0.0000e+00  0.0000e+00  0.0000e+00
         1     1.000(10e12.4)                   -1     STARTING HEADS Layer   5
  1.0000e+00  0.0000e+00  0.0000e+00  0.0000e+00  0.0000e+00  0.0000e+00  0.0000e+00  0.0000e+00  0.0000e+00  0.0000e+00
  0.0000e+00  0.0000e+00  0.0000e+00  0.0000e+00  0.0000e+00  0.0000e+00  0.0000e+00  0.0000e+00  0.0000e+00  0.0000e+00
         1     1.000(10e12.4)                   -1     STARTING HEADS Layer   6
  1.0000e+00  0.0000e+00  0.0000e+00  0.0000e+00  0.0000e+00  0.0000e+00  0.0000e+00  0.0000e+00  0.0000e+00  0.0000e+00
  0.0000e+00  0.0000e+00  0.0000e+00  0.0000e+00  0.0000e+00  0.0000e+00  0.0000e+00  0.0000e+00  0.0000e+00  0.0000e+00
         1     1.000(10e12.4)                   -1     STARTING HEADS Layer   7
  1.0000e+00  0.0000e+00  0.0000e+00  0.0000e+00  0.0000e+00  0.0000e+00  0.0000e+00  0.0000e+00  0.0000e+00  0.0000e+00
  0.0000e+00  0.0000e+00  0.0000e+00  0.0000e+00  0.0000e+00  0.0000e+00  0.0000e+00  0.0000e+00  0.0000e+00  0.0000e+00
         1     1.000(10e12.4)                   -1     STARTING HEADS Layer   8
  1.0000e+00  0.0000e+00  0.0000e+00  0.0000e+00  0.0000e+00  0.0000e+00  0.0000e+00  0.0000e+00  0.0000e+00  0.0000e+00
  0.0000e+00  0.0000e+00  0.0000e+00  0.0000e+00  0.0000e+00  0.0000e+00  0.0000e+00  0.0000e+00  0.0000e+00  0.0000e+00
         1     1.000(10e12.4)                   -1     STARTING HEADS Layer   9
  1.0000e+00  0.0000e+00  0.0000e+00  0.0000e+00  0.0000e+00  0.0000e+00  0.0000e+00  0.0000e+00  0.0000e+00  0.0000e+00
  0.0000e+00  0.0000e+00  0.0000e+00  0.0000e+00  0.0000e+00  0.0000e+00  0.0000e+00  0.0000e+00  0.0000e+00  0.0000e+00
         1     1.000(10e12.4)                   -1     STARTING HEADS Layer  10
  1.0000e+00  0.0000e+00  0.0000e+00  0.0000e+00  0.0000e+00  0.0000e+00  0.0000e+00  0.0000e+00  0.0000e+00  0.0000e+00
  0.0000e+00  0.0000e+00  0.0000e+00  0.0000e+00  0.0000e+00  0.0000e+00  0.0000e+00  0.0000e+00  0.0000e+00  0.0000e+00
         1     1.000(10e12.4)                   -1     STARTING HEADS Layer  11
  1.0000e+00  0.0000e+00  0.0000e+00  0.0000e+00  0.0000e+00  0.0000e+00  0.0000e+00  0.0000e+00  0.0000e+00  0.0000e+00
  0.0000e+00  0.0000e+00  0.0000e+00  0.0000e+00  0.0000e+00  0.0000e+00  0.0000e+00  0.0000e+00  0.0000e+00  0.0000e+00
         1     1.000(10e12.4)                   -1     STARTING HEADS Layer  12
  1.0000e+00  0.0000e+00  0.0000e+00  0.0000e+00  0.0000e+00  0.0000e+00  0.0000e+00  0.0000e+00  0.0000e+00  0.0000e+00
  0.0000e+00  0.0000e+00  0.0000e+00  0.0000e+00  0.0000e+00  0.0000e+00  0.0000e+00  0.0000e+00  0.0000e+00  0.0000e+00
         1     1.000(10e12.4)                   -1     STARTING HEADS Layer  13
  1.0000e+00  0.0000e+00  0.0000e+00  0.0000e+00  0.0000e+00  0.0000e+00  0.0000e+00  0.0000e+00  0.0000e+00  0.0000e+00
  0.0000e+00  0.0000e+00  0.0000e+00  0.0000e+00  0.0000e+00  0.0000e+00  0.0000e+00  0.0000e+00  0.0000e+00  0.0000e+00
         1     1.000(10e12.4)                   -1     STARTING HEADS Layer  14
  1.0000e+00  0.0000e+00  0.0000e+00  0.0000e+00  0.0000e+00  0.0000e+00  0.0000e+00  0.0000e+00  0.0000e+00  0.0000e+00
  0.0000e+00  0.0000e+00  0.0000e+00  0.0000e+00  0.0000e+00  0.0000e+00  0.0000e+00  0.0000e+00  0.0000e+00  0.0000e+00
         1     1.000(10e12.4)                   -1     STARTING HEADS Layer  15
  1.0000e+00  0.0000e+00  0.0000e+00  0.0000e+00  0.0000e+00  0.0000e+00  0.0000e+00  0.0000e+00  0.0000e+00  0.0000e+00
  0.0000e+00  0.0000e+00  0.0000e+00  0.0000e+00  0.0000e+00  0.0000e+00  0.0000e+00  0.0000e+00  0.0000e+00  0.0000e+00
         1     1.000(10e12.4)                   -1     STARTING HEADS Layer  16
  1.0000e+00  0.0000e+00  0.0000e+00  0.0000e+00  0.0000e+00  0.0000e+00  0.0000e+00  0.0000e+00  0.0000e+00  0.0000e+00
  0.0000e+00  0.0000e+00  0.0000e+00  0.0000e+00  0.0000e+00  0.0000e+00  0.0000e+00  0.0000e+00  0.0000e+00  0.0000e+00
         1     1.000(10e12.4)                   -1     STARTING HEADS Layer  17
  1.0000e+00  6.2500e-01  6.2500e-01  6.2500e-01  6.2500e-01  6.2500e-01  6.2500e-01  6.2500e-01  6.2500e-01  6.2500e-01
  6.2500e-01  6.2500e-01  6.2500e-01  6.2500e-01  6.2500e-01  6.2500e-01  6.2500e-01  6.2500e-01  6.2500e-01  0.0000e+00
         1     1.000(10e12.4)                   -1     STARTING HEADS Layer  18
 -3.9678e+01  2.5000e+00  2.5000e+00  2.5000e+00  2.5000e+00  2.5000e+00  2.5000e+00  2.5000e+00  2.5000e+00  2.5000e+00
  2.5000e+00  2.5000e+00  2.5000e+00  2.5000e+00  2.5000e+00  2.5000e+00  2.5000e+00  2.5000e+00  2.5000e+00 -4.0654e+01
         1     1.000(10e12.4)                   -1     STARTING HEADS Layer  19
 -3.9678e+01  5.0000e+00  5.0000e+00  5.0000e+00  5.0000e+00  5.0000e+00  5.0000e+00  5.0000e+00  5.0000e+00  5.0000e+00
  5.0000e+00  5.0000e+00  5.0000e+00  5.0000e+00  5.0000e+00  5.0000e+00  5.0000e+00  5.0000e+00  5.0000e+00 -4.0654e+01
         1     1.000(10e12.4)                   -1     STARTING HEADS Layer  20
 -3.9678e+01  7.5000e+00  7.5000e+00  7.5000e+00  7.5000e+00  7.5000e+00  7.5000e+00  7.5000e+00  7.5000e+00  7.5000e+00
  7.5000e+00  7.5000e+00  7.5000e+00  7.5000e+00  7.5000e+00  7.5000e+00  7.5000e+00  7.5000e+00  7.5000e+00 -4.0654e+01
