# MODFLOW2000 Constant-Head Boundary Package (CHD)
        40
        40         0
         1         1         1     1.000     1.000
         1         1        20     0.000     0.000
        18         1        20   -40.654   -40.654
        18         1         1   -39.678   -39.678
         2         1         1     1.000     1.000
         3         1         1     1.000     1.000
         4         1         1     1.000     1.000
         5         1         1     1.000     1.000
         6         1         1     1.000     1.000
         7         1         1     1.000     1.000
         8         1         1     1.000     1.000
         9         1         1     1.000     1.000
        10         1         1     1.000     1.000
        11         1         1     1.000     1.000
        12         1         1     1.000     1.000
        13         1         1     1.000     1.000
        14         1         1     1.000     1.000
        15         1         1     1.000     1.000
        16         1         1     1.000     1.000
        17         1         1     1.000     1.000
         2         1        20     0.000     0.000
         3         1        20     0.000     0.000
         4         1        20     0.000     0.000
         5         1        20     0.000     0.000
         6         1        20     0.000     0.000
         7         1        20     0.000     0.000
         8         1        20     0.000     0.000
         9         1        20     0.000     0.000
        10         1        20     0.000     0.000
        11         1        20     0.000     0.000
        12         1        20     0.000     0.000
        13         1        20     0.000     0.000
        14         1        20     0.000     0.000
        15         1        20     0.000     0.000
        16         1        20     0.000     0.000
        17         1        20     0.000     0.000
        19         1         1   -39.678   -39.678
        20         1         1   -39.678   -39.678
        19         1        20   -40.654   -40.654
        20         1        20   -40.654   -40.654
