@ [ MODPATH 5.0 (TREF=   0.000000E+00 ) ]
  1   13   11    1  3.16903E+03  7.25000E+03  3.06133E+00  2.28447E-06  1.27809E+05  5.31250E+02  6.78125E+03  1.00000E-03    3   13    1   1     1     11  0.00000E+00
  1   13   11    1  3.16903E+03  7.25000E+03  3.07229E+00  7.54945E-04  1.27809E+05  5.31250E+02  6.78125E+03  3.33333E-01    3   13    1   1     1     11  0.00000E+00
  1   13   11    1  3.16903E+03  7.25000E+03  3.08329E+00  1.50992E-03  1.27809E+05  5.31250E+02  6.78125E+03  6.66667E-01    3   13    1   1     1     11  0.00000E+00
  1   13   11    1  3.16903E+03  7.25000E+03  3.09424E+00  2.26250E-03  1.27809E+05  5.31250E+02  6.78125E+03  9.99000E-01    3   13    1   1     1     11  0.00000E+00
  1   15   13    1  3.50000E+03  6.99151E+03  1.64623E+00  1.91740E-06  1.32076E+05  5.93750E+02  6.78125E+03  1.00000E-03    3   13    1   1     1     11  0.00000E+00
  1   15   13    1  3.50000E+03  6.99151E+03  1.65616E+00  6.32195E-04  1.32076E+05  5.93750E+02  6.78125E+03  3.33333E-01    3   13    1   1     1     11  0.00000E+00
  1   15   13    1  3.50000E+03  6.99151E+03  1.66612E+00  1.26447E-03  1.32076E+05  5.93750E+02  6.78125E+03  6.66667E-01    3   13    1   1     1     11  0.00000E+00
  1   15   13    1  3.50000E+03  6.99151E+03  1.67605E+00  1.89476E-03  1.32076E+05  5.93750E+02  6.78125E+03  9.99000E-01    3   13    1   1     1     11  0.00000E+00
  1   15   13    1  3.50000E+03  6.84855E+03  1.64624E+00  2.59108E-06  1.27221E+05  6.56250E+02  6.78125E+03  1.00000E-03    3   13    1   1     1     11  0.00000E+00
  1   15   13    1  3.50000E+03  6.84855E+03  1.65990E+00  8.69642E-04  1.27221E+05  6.56250E+02  6.78125E+03  3.33333E-01    3   13    1   1     1     11  0.00000E+00
  1   15   13    1  3.50000E+03  6.84855E+03  1.67361E+00  1.73933E-03  1.27221E+05  6.56250E+02  6.78125E+03  6.66667E-01    3   13    1   1     1     11  0.00000E+00
  1   15   13    1  3.50000E+03  6.84855E+03  1.68727E+00  2.60630E-03  1.27221E+05  6.56250E+02  6.78125E+03  9.99000E-01    3   13    1   1     1     11  0.00000E+00
  1   15   14    1  3.50000E+03  6.72444E+03  1.84024E+00  2.50383E-06  1.29030E+05  7.18750E+02  6.78125E+03  1.00000E-03    3   13    1   1     1     11  0.00000E+00
  1   15   14    1  3.50000E+03  6.72444E+03  1.85303E+00  8.36610E-04  1.29030E+05  7.18750E+02  6.78125E+03  3.33333E-01    3   13    1   1     1     11  0.00000E+00
  1   15   14    1  3.50000E+03  6.72444E+03  1.86586E+00  1.67336E-03  1.29030E+05  7.18750E+02  6.78125E+03  6.66667E-01    3   13    1   1     1     11  0.00000E+00
  1   15   14    1  3.50000E+03  6.72444E+03  1.87866E+00  2.50753E-03  1.29030E+05  7.18750E+02  6.78125E+03  9.99000E-01    3   13    1   1     1     11  0.00000E+00
  1   13   11    1  3.00000E+03  7.27354E+03  3.06161E+00  2.14973E-05  7.93286E+04  5.31250E+02  6.84375E+03  1.00000E-03    3   13    1   1     1     11  0.00000E+00
  1   13   11    1  3.00000E+03  7.27354E+03  3.16569E+00  7.16930E-03  7.93286E+04  5.31250E+02  6.84375E+03  3.33333E-01    3   13    1   1     1     11  0.00000E+00
  1   13   11    1  3.00000E+03  7.27354E+03  3.27007E+00  1.43386E-02  7.93286E+04  5.31250E+02  6.84375E+03  6.66667E-01    3   13    1   1     1     11  0.00000E+00
  1   13   11    1  3.00000E+03  7.27354E+03  3.37415E+00  2.14863E-02  7.93286E+04  5.31250E+02  6.84375E+03  9.99000E-01    3   13    1   1     1     11  0.00000E+00
  1   13   11    1  3.07673E+03  7.25000E+03  3.06160E+00  2.06390E-05  8.04001E+04  5.93750E+02  6.84375E+03  1.00000E-03    3   13    1   1     1     11  0.00000E+00
  1   13   11    1  3.07673E+03  7.25000E+03  3.16177E+00  6.90012E-03  8.04001E+04  5.93750E+02  6.84375E+03  3.33333E-01    3   13    1   1     1     11  0.00000E+00
  1   13   11    1  3.07673E+03  7.25000E+03  3.26223E+00  1.38001E-02  8.04001E+04  5.93750E+02  6.84375E+03  6.66667E-01    3   13    1   1     1     11  0.00000E+00
  1   13   11    1  3.07673E+03  7.25000E+03  3.36240E+00  2.06795E-02  8.04001E+04  5.93750E+02  6.84375E+03  9.99000E-01    3   13    1   1     1     11  0.00000E+00
  1   13   11    1  3.21489E+03  7.25000E+03  3.06159E+00  1.99142E-05  8.01430E+04  6.56250E+02  6.84375E+03  1.00000E-03    3   13    1   1     1     11  0.00000E+00
  1   13   11    1  3.21489E+03  7.25000E+03  3.15813E+00  6.65024E-03  8.01430E+04  6.56250E+02  6.84375E+03  3.33333E-01    3   13    1   1     1     11  0.00000E+00
  1   13   11    1  3.21489E+03  7.25000E+03  3.25496E+00  1.33005E-02  8.01430E+04  6.56250E+02  6.84375E+03  6.66667E-01    3   13    1   1     1     11  0.00000E+00
  1   13   11    1  3.21489E+03  7.25000E+03  3.35150E+00  1.99307E-02  8.01430E+04  6.56250E+02  6.84375E+03  9.99000E-01    3   13    1   1     1     11  0.00000E+00
  1   15   13    1  3.50000E+03  6.96210E+03  1.64649E+00  1.82708E-05  8.28230E+04  7.18750E+02  6.84375E+03  1.00000E-03    3   13    1   1     1     11  0.00000E+00
  1   15   13    1  3.50000E+03  6.96210E+03  1.74277E+00  6.12913E-03  8.28230E+04  7.18750E+02  6.84375E+03  3.33333E-01    3   13    1   1     1     11  0.00000E+00
  1   15   13    1  3.50000E+03  6.96210E+03  1.83934E+00  1.22581E-02  8.28230E+04  7.18750E+02  6.84375E+03  6.66667E-01    3   13    1   1     1     11  0.00000E+00
  1   15   13    1  3.50000E+03  6.96210E+03  1.93563E+00  1.83688E-02  8.28230E+04  7.18750E+02  6.84375E+03  9.99000E-01    3   13    1   1     1     11  0.00000E+00
  1   13   11    1  3.00000E+03  7.30064E+03  3.06190E+00  4.08586E-05  6.51337E+04  5.31250E+02  6.90625E+03  1.00000E-03    3   13    1   1     1     11  0.00000E+00
  1   13   11    1  3.00000E+03  7.30064E+03  3.26004E+00  1.36494E-02  6.51337E+04  5.31250E+02  6.90625E+03  3.33333E-01    3   13    1   1     1     11  0.00000E+00
  1   13   11    1  3.00000E+03  7.30064E+03  3.45878E+00  2.72991E-02  6.51337E+04  5.31250E+02  6.90625E+03  6.66667E-01    3   13    1   1     1     11  0.00000E+00
  1   13   11    1  3.00000E+03  7.30064E+03  3.65692E+00  4.09075E-02  6.51337E+04  5.31250E+02  6.90625E+03  9.99000E-01    3   13    1   1     1     11  0.00000E+00
  1   13   11    1  3.00921E+03  7.25000E+03  3.06192E+00  4.24911E-05  6.48138E+04  5.93750E+02  6.90625E+03  1.00000E-03    3   13    1   1     1     11  0.00000E+00
  1   13   11    1  3.00921E+03  7.25000E+03  3.26714E+00  1.41373E-02  6.48138E+04  5.93750E+02  6.90625E+03  3.33333E-01    3   13    1   1     1     11  0.00000E+00
  1   13   11    1  3.00921E+03  7.25000E+03  3.47299E+00  2.82747E-02  6.48138E+04  5.93750E+02  6.90625E+03  6.66667E-01    3   13    1   1     1     11  0.00000E+00
  1   13   11    1  3.00921E+03  7.25000E+03  3.67821E+00  4.23697E-02  6.48138E+04  5.93750E+02  6.90625E+03  9.99000E-01    3   13    1   1     1     11  0.00000E+00
  1   13   11    1  3.13877E+03  7.25000E+03  3.06187E+00  3.94346E-05  6.54605E+04  6.56250E+02  6.90625E+03  1.00000E-03    3   13    1   1     1     11  0.00000E+00
  1   13   11    1  3.13877E+03  7.25000E+03  3.25342E+00  1.31950E-02  6.54605E+04  6.56250E+02  6.90625E+03  3.33333E-01    3   13    1   1     1     11  0.00000E+00
  1   13   11    1  3.13877E+03  7.25000E+03  3.44554E+00  2.63897E-02  6.54605E+04  6.56250E+02  6.90625E+03  6.66667E-01    3   13    1   1     1     11  0.00000E+00
  1   13   11    1  3.13877E+03  7.25000E+03  3.63709E+00  3.95451E-02  6.54605E+04  6.56250E+02  6.90625E+03  9.99000E-01    3   13    1   1     1     11  0.00000E+00
  1   15   12    1  3.50000E+03  7.08332E+03  2.62625E+00  2.99845E-05  7.11748E+04  7.18750E+02  6.90625E+03  1.00000E-03    3   13    1   1     1     11  0.00000E+00
  1   15   12    1  3.50000E+03  7.08332E+03  2.77538E+00  9.97815E-03  7.11748E+04  7.18750E+02  6.90625E+03  3.33333E-01    3   13    1   1     1     11  0.00000E+00
  1   15   12    1  3.50000E+03  7.08332E+03  2.92496E+00  1.99562E-02  7.11748E+04  7.18750E+02  6.90625E+03  6.66667E-01    3   13    1   1     1     11  0.00000E+00
  1   15   12    1  3.50000E+03  7.08332E+03  3.07410E+00  2.99044E-02  7.11748E+04  7.18750E+02  6.90625E+03  9.99000E-01    3   13    1   1     1     11  0.00000E+00
  1   13   11    1  3.00000E+03  7.31691E+03  3.06218E+00  6.07387E-05  5.65476E+04  5.31250E+02  6.96875E+03  1.00000E-03    3   13    1   1     1     11  0.00000E+00
  1   13   11    1  3.00000E+03  7.31691E+03  3.35633E+00  2.02628E-02  5.65476E+04  5.31250E+02  6.96875E+03  3.33333E-01    3   13    1   1     1     11  0.00000E+00
  1   13   11    1  3.00000E+03  7.31691E+03  3.65137E+00  4.05260E-02  5.65476E+04  5.31250E+02  6.96875E+03  6.66667E-01    3   13    1   1     1     11  0.00000E+00
  1   13   11    1  3.00000E+03  7.31691E+03  3.94552E+00  6.07280E-02  5.65476E+04  5.31250E+02  6.96875E+03  9.99000E-01    3   13    1   1     1     11  0.00000E+00
  1   13   11    1  3.00000E+03  7.26273E+03  3.06223E+00  6.35918E-05  5.57358E+04  5.93750E+02  6.96875E+03  1.00000E-03    3   13    1   1     1     11  0.00000E+00
  1   13   11    1  3.00000E+03  7.26273E+03  3.36975E+00  2.11844E-02  5.57358E+04  5.93750E+02  6.96875E+03  3.33333E-01    3   13    1   1     1     11  0.00000E+00
  1   13   11    1  3.00000E+03  7.26273E+03  3.67820E+00  4.23686E-02  5.57358E+04  5.93750E+02  6.96875E+03  6.66667E-01    3   13    1   1     1     11  0.00000E+00
  1   13   11    1  3.00000E+03  7.26273E+03  3.98572E+00  6.34893E-02  5.57358E+04  5.93750E+02  6.96875E+03  9.99000E-01    3   13    1   1     1     11  0.00000E+00
  1   13   11    1  3.09471E+03  7.25000E+03  3.06218E+00  6.01208E-05  5.67756E+04  6.56250E+02  6.96875E+03  1.00000E-03    3   13    1   1     1     11  0.00000E+00
  1   13   11    1  3.09471E+03  7.25000E+03  3.35368E+00  2.00810E-02  5.67756E+04  6.56250E+02  6.96875E+03  3.33333E-01    3   13    1   1     1     11  0.00000E+00
  1   13   11    1  3.09471E+03  7.25000E+03  3.64607E+00  4.01620E-02  5.67756E+04  6.56250E+02  6.96875E+03  6.66667E-01    3   13    1   1     1     11  0.00000E+00
  1   13   11    1  3.09471E+03  7.25000E+03  3.93758E+00  6.01828E-02  5.67756E+04  6.56250E+02  6.96875E+03  9.99000E-01    3   13    1   1     1     11  0.00000E+00
  1   13   11    1  3.22532E+03  7.25000E+03  3.06215E+00  5.81672E-05  5.66997E+04  7.18750E+02  6.96875E+03  1.00000E-03    3   13    1   1     1     11  0.00000E+00
  1   13   11    1  3.22532E+03  7.25000E+03  3.34360E+00  1.93881E-02  5.66997E+04  7.18750E+02  6.96875E+03  3.33333E-01    3   13    1   1     1     11  0.00000E+00
  1   13   11    1  3.22532E+03  7.25000E+03  3.62589E+00  3.87761E-02  5.66997E+04  7.18750E+02  6.96875E+03  6.66667E-01    3   13    1   1     1     11  0.00000E+00
  1   13   11    1  3.22532E+03  7.25000E+03  3.90734E+00  5.81063E-02  5.66997E+04  7.18750E+02  6.96875E+03  9.99000E-01    3   13    1   1     1     11  0.00000E+00
