@ [ MODPATH 5.0 (TREF=   0.000000E+00 ) ]
      1  5.31250000E+02  6.78125000E+03  1.00000005E-03  1.39111519E+01  0.00000000E+00    3   13    1       1
      1  7.00653870E+02  7.00000000E+03  3.31075207E-05  1.38965015E+01  7.46868516E+04    3   12    1       1
      1  7.49127563E+02  7.25000000E+03  1.55882826E-05  1.46042242E+01  9.03855547E+04    3   11    1       1
      1  7.50000000E+02  7.25340625E+03  1.54411682E-05  1.30832434E+01  9.05454297E+04    4   11    1       1
      1  7.87149597E+02  7.50000000E+03  1.12044445E-05  1.55171490E+01  9.67596406E+04    4   10    1       1
      1  8.24483093E+02  7.75000000E+03  9.07456706E-06  1.41311302E+01  1.01153586E+05    4    9    1       1
      1  8.67189514E+02  8.00000000E+03  7.91787443E-06  1.57410984E+01  1.03661391E+05    4    8    1       1
      1  1.00000000E+03  8.11196436E+03  7.42077827E-06  1.31861067E+01  1.04872898E+05    5    8    1       1
      1  1.25000000E+03  8.13000586E+03  6.81009715E-06  1.53440781E+01  1.06469969E+05    6    8    1       1
      1  1.50000000E+03  8.13526758E+03  6.22874222E-06  1.48300695E+01  1.08022258E+05    7    8    1       1
      1  1.75000000E+03  8.13185400E+03  5.62076139E-06  1.45940590E+01  1.09363625E+05    8    8    1       1
      1  1.94262305E+03  8.00000000E+03  5.24461348E-06  1.55070429E+01  1.10249891E+05    8    9    1       1
      1  2.00000000E+03  7.94797559E+03  5.08015091E-06  1.28750496E+01  1.10637047E+05    9    9    1       1
      1  2.20767212E+03  7.75000000E+03  4.63870401E-06  8.82736015E+00  1.12467664E+05    9   10    1       1
      1  2.25000000E+03  7.64983496E+03  4.41042675E-06  1.03920469E+01  1.13160625E+05   10   10    1       1
      1  2.35613477E+03  7.50000000E+03  4.00541830E-06  6.36525726E+00  1.15097219E+05   10   11    1       1
      1  2.50000000E+03  7.31563770E+03  3.49763604E-06  5.44865131E+00  1.17893430E+05   11   11    1       1
      1  2.60186719E+03  7.25000000E+03  3.24621260E-06  3.13475394E+00  1.19667125E+05   11   12    1       1
      1  2.75000000E+03  7.16959766E+03  2.95039445E-06  2.54064989E+00  1.22079414E+05   12   12    1       1
      1  3.00000000E+03  7.11635303E+03  2.56634485E-06  4.19273758E+00  1.25174391E+05   13   12    1       1
      1  3.16903467E+03  7.25000000E+03  2.28446515E-06  3.07223463E+00  1.27808734E+05   13   11    1       1
      2  5.31250000E+02  6.78125000E+03  3.33333343E-01  1.89465408E+01  0.00000000E+00    3   13    1       1
      2  7.00653870E+02  7.00000000E+03  1.10453870E-02  1.40633554E+01  7.46868516E+04    3   12    1       1
      2  7.49127563E+02  7.25000000E+03  5.19275526E-03  1.46786566E+01  9.03855547E+04    3   11    1       1
      2  7.50000000E+02  7.25340625E+03  5.15644206E-03  1.31642103E+01  9.05454297E+04    4   11    1       1
      2  7.87149597E+02  7.50000000E+03  3.73136741E-03  1.55665455E+01  9.67596406E+04    4   10    1       1
      2  8.24483093E+02  7.75000000E+03  3.02176457E-03  1.41745062E+01  1.01153586E+05    4    9    1       1
      2  8.67189514E+02  8.00000000E+03  2.62773503E-03  1.57735996E+01  1.03661391E+05    4    8    1       1
      2  1.00000000E+03  8.11196436E+03  2.47920235E-03  1.32216845E+01  1.04872898E+05    5    8    1       1
      2  1.25000000E+03  8.13000586E+03  2.25198292E-03  1.53698597E+01  1.06469969E+05    6    8    1       1
      2  1.50000000E+03  8.13526758E+03  2.04584328E-03  1.48528662E+01  1.08022258E+05    7    8    1       1
      2  1.75000000E+03  8.13185400E+03  1.87316409E-03  1.46137047E+01  1.09363625E+05    8    8    1       1
      2  1.94262305E+03  8.00000000E+03  1.73806492E-03  1.55212221E+01  1.10249891E+05    8    9    1       1
      2  2.00000000E+03  7.94797559E+03  1.69100647E-03  1.28915071E+01  1.10637047E+05    9    9    1       1
      2  2.20767212E+03  7.75000000E+03  1.53364392E-03  8.84716415E+00  1.12467664E+05    9   10    1       1
      2  2.25000000E+03  7.64983496E+03  1.46588183E-03  1.04075317E+01  1.13160625E+05   10   10    1       1
      2  2.35613477E+03  7.50000000E+03  1.33480574E-03  6.38426876E+00  1.15097219E+05   10   11    1       1
      2  2.50000000E+03  7.31563770E+03  1.17060693E-03  5.46583557E+00  1.17893430E+05   11   11    1       1
      2  2.60186719E+03  7.25000000E+03  1.08726579E-03  3.15274715E+00  1.19667125E+05   11   12    1       1
      2  2.75000000E+03  7.16959766E+03  9.85050574E-04  2.55723667E+00  1.22079414E+05   12   12    1       1
      2  3.00000000E+03  7.11635303E+03  8.51474237E-04  4.20519829E+00  1.25174391E+05   13   12    1       1
      2  3.16903467E+03  7.25000000E+03  7.54944806E-04  3.08362460E+00  1.27808734E+05   13   11    1       1
      3  5.31250000E+02  6.78125000E+03  6.66666687E-01  2.39970818E+01  0.00000000E+00    3   13    1       1
      3  7.00653870E+02  7.00000000E+03  2.20907740E-02  1.42307110E+01  7.46868516E+04    3   12    1       1
      3  7.49127563E+02  7.25000000E+03  1.03855776E-02  1.47533140E+01  9.03855547E+04    3   11    1       1
      3  7.50000000E+02  7.25340625E+03  1.03129447E-02  1.32454214E+01  9.05454297E+04    4   11    1       1
      3  7.87149597E+02  7.50000000E+03  7.46266311E-03  1.56160898E+01  9.67596406E+04    4   10    1       1
      3  8.24483093E+02  7.75000000E+03  6.04339689E-03  1.42180109E+01  1.01153586E+05    4    9    1       1
      3  8.67189514E+02  8.00000000E+03  5.25531638E-03  1.58061972E+01  1.03661391E+05    4    8    1       1
      3  1.00000000E+03  8.11196436E+03  4.95827245E-03  1.32573671E+01  1.04872898E+05    5    8    1       1
      3  1.25000000E+03  8.13000586E+03  4.50388296E-03  1.53957186E+01  1.06469969E+05    6    8    1       1
      3  1.50000000E+03  8.13526758E+03  4.09160089E-03  1.48757315E+01  1.08022258E+05    7    8    1       1
      3  1.75000000E+03  8.13185400E+03  3.74632818E-03  1.46334095E+01  1.09363625E+05    8    8    1       1
      3  1.94262305E+03  8.00000000E+03  3.47612984E-03  1.55354443E+01  1.10249891E+05    8    9    1       1
      3  2.00000000E+03  7.94797559E+03  3.38220829E-03  1.29080162E+01  1.10637047E+05    9    9    1       1
      3  2.20767212E+03  7.75000000E+03  3.06743523E-03  8.86703014E+00  1.12467664E+05    9   10    1       1
      3  2.25000000E+03  7.64983496E+03  2.93194363E-03  1.04230652E+01  1.13160625E+05   10   10    1       1
      3  2.35613477E+03  7.50000000E+03  2.66967830E-03  6.40333843E+00  1.15097219E+05   10   11    1       1
      3  2.50000000E+03  7.31563770E+03  2.34127883E-03  5.48307228E+00  1.17893430E+05   11   11    1       1
      3  2.60186719E+03  7.25000000E+03  2.17458908E-03  3.17079520E+00  1.19667125E+05   11   12    1       1
      3  2.75000000E+03  7.16959766E+03  1.97015773E-03  2.57387424E+00  1.22079414E+05   12   12    1       1
      3  3.00000000E+03  7.11635303E+03  1.70298095E-03  4.21769714E+00  1.25174391E+05   13   12    1       1
      3  3.16903467E+03  7.25000000E+03  1.50992116E-03  3.09504962E+00  1.27808734E+05   13   11    1       1
      4  5.31250000E+02  6.78125000E+03  9.99000013E-01  2.90324707E+01  0.00000000E+00    3   13    1       1
      4  7.00653870E+02  7.00000000E+03  3.31030525E-02  1.43975649E+01  7.46868516E+04    3   12    1       1
      4  7.49127563E+02  7.25000000E+03  1.55628109E-02  1.48277473E+01  9.03855547E+04    3   11    1       1
      4  7.50000000E+02  7.25340625E+03  1.54540064E-02  1.33263893E+01  9.05454297E+04    4   11    1       1
      4  7.87149597E+02  7.50000000E+03  1.11828977E-02  1.56654873E+01  9.67596406E+04    4   10    1       1
      4  8.24483093E+02  7.75000000E+03  9.05615278E-03  1.42613878E+01  1.01153586E+05    4    9    1       1
      4  8.67189514E+02  8.00000000E+03  7.87521061E-03  1.58386993E+01  1.03661391E+05    4    8    1       1
      4  1.00000000E+03  8.11196436E+03  7.43005425E-03  1.32929449E+01  1.04872898E+05    5    8    1       1
      4  1.25000000E+03  8.13000586E+03  6.74905535E-03  1.54215002E+01  1.06469969E+05    6    8    1       1
      4  1.50000000E+03  8.13526758E+03  6.13130070E-03  1.48985291E+01  1.08022258E+05    7    8    1       1
      4  1.75000000E+03  8.13185400E+03  5.61396219E-03  1.46530561E+01  1.09363625E+05    8    8    1       1
      4  1.94262305E+03  8.00000000E+03  5.20906644E-03  1.55496244E+01  1.10249891E+05    8    9    1       1
      4  2.00000000E+03  7.94797559E+03  5.06813452E-03  1.29244738E+01  1.10637047E+05    9    9    1       1
      4  2.20767212E+03  7.75000000E+03  4.59644059E-03  8.88683414E+00  1.12467664E+05    9   10    1       1
      4  2.25000000E+03  7.64983496E+03  4.39332519E-03  1.04385490E+01  1.13160625E+05   10   10    1       1
      4  2.35613477E+03  7.50000000E+03  4.00034478E-03  6.42234802E+00  1.15097219E+05   10   11    1       1
      4  2.50000000E+03  7.31563770E+03  3.50825861E-03  5.50025463E+00  1.17893430E+05   11   11    1       1
      4  2.60186719E+03  7.25000000E+03  3.25847929E-03  3.18878627E+00  1.19667125E+05   11   12    1       1
      4  2.75000000E+03  7.16959766E+03  2.95217312E-03  2.59045959E+00  1.22079414E+05   12   12    1       1
      4  3.00000000E+03  7.11635303E+03  2.55179149E-03  4.23015642E+00  1.25174391E+05   13   12    1       1
      4  3.16903467E+03  7.25000000E+03  2.26250268E-03  3.10643840E+00  1.27808734E+05   13   11    1       1
      5  5.93750000E+02  6.78125000E+03  1.00000005E-03  1.39111519E+01  0.00000000E+00    3   13    1       1
      5  7.50000000E+02  6.92071191E+03  5.21789661E-05  1.38967905E+01  6.47407578E+04    4   13    1       1
      5  7.69656250E+02  7.00000000E+03  3.65633205E-05  1.29135895E+01  7.30532969E+04    4   12    1       1
      5  8.02018066E+02  7.25000000E+03  1.99083970E-05  1.44962883E+01  8.57705312E+04    4   11    1       1
      5  8.31921204E+02  7.50000000E+03  1.42928493E-05  1.55171900E+01  9.20956719E+04    4   10    1       1
      5  8.61401855E+02  7.75000000E+03  1.15916000E-05  1.41311665E+01  9.64896172E+04    4    9    1       1
      5  8.95125305E+02  8.00000000E+03  1.00703073E-05  1.57411251E+01  9.89974219E+04    4    8    1       1
      5  1.00000000E+03  8.08785400E+03  9.60725720E-06  1.31861382E+01  9.99196250E+04    5    8    1       1
      5  1.25000000E+03  8.10201025E+03  8.72024611E-06  1.53441000E+01  1.01516695E+05    6    8    1       1
      5  1.50000000E+03  8.10613867E+03  8.02057184E-06  1.48300896E+01  1.03068984E+05    7    8    1       1
      5  1.75000000E+03  8.10346045E+03  7.34325295E-06  1.45940771E+01  1.04410352E+05    8    8    1       1
      5  1.89987598E+03  8.00000000E+03  6.99281782E-06  1.55070572E+01  1.05074359E+05    8    9    1       1
      5  2.00000000E+03  7.90815820E+03  6.64327445E-06  1.28750648E+01  1.05834117E+05    9    9    1       1
      5  2.16420923E+03  7.75000000E+03  6.18493914E-06  8.82738018E+00  1.07245500E+05    9   10    1       1
      5  2.25000000E+03  7.54162012E+03  5.49053129E-06  1.03920584E+01  1.08815664E+05   10   10    1       1
      5  2.27848389E+03  7.50000000E+03  5.37393635E-06  6.36527681E+00  1.09373562E+05   10   11    1       1
      5  2.45341626E+03  7.25000000E+03  4.46920149E-06  5.44866562E+00  1.13283742E+05   10   12    1       1
      5  2.50000000E+03  7.20165527E+03  4.29497504E-06  5.26106262E+00  1.14147047E+05   11   12    1       1
      5  2.75000000E+03  7.06687793E+03  3.58564694E-06  2.54066062E+00  1.18499844E+05   12   12    1       1
      5  3.00000000E+03  7.00840918E+03  3.11859640E-06  4.19274569E+00  1.21594820E+05   13   12    1       1
      5  3.25000000E+03  7.09514209E+03  2.52078917E-06  3.07223821E+00  1.26226492E+05   14   12    1       1
      5  3.46330347E+03  7.00000000E+03  1.96461383E-06  3.14072919E+00  1.31542734E+05   14   13    1       1
      5  3.50000000E+03  6.99150928E+03  1.91740151E-06  1.73383093E+00  1.32075766E+05   15   13    1       1
      6  5.93750000E+02  6.78125000E+03  3.33333343E-01  1.89465408E+01  0.00000000E+00    3   13    1       1
      6  7.50000000E+02  6.92071191E+03  1.73873659E-02  1.41594467E+01  6.47407578E+04    4   13    1       1
      6  7.69656250E+02  7.00000000E+03  1.21739293E-02  1.31092339E+01  7.30532969E+04    4   12    1       1
      6  8.02018066E+02  7.25000000E+03  6.63055107E-03  1.45919228E+01  8.57705312E+04    4   11    1       1
      6  8.31921204E+02  7.50000000E+03  4.77043586E-03  1.55803423E+01  9.20956719E+04    4   10    1       1
      6  8.61401855E+02  7.75000000E+03  3.86318238E-03  1.41866207E+01  9.64896172E+04    4    9    1       1
      6  8.95125305E+02  8.00000000E+03  3.35948518E-03  1.57826777E+01  9.89974219E+04    4    8    1       1
      6  1.00000000E+03  8.08785400E+03  3.21399188E-03  1.32322607E+01  9.99196250E+04    5    8    1       1
      6  1.25000000E+03  8.10201025E+03  2.91945552E-03  1.53775244E+01  1.01516695E+05    6    8    1       1
      6  1.50000000E+03  8.10613867E+03  2.65224976E-03  1.48596439E+01  1.03068984E+05    7    8    1       1
      6  1.75000000E+03  8.10346045E+03  2.42853165E-03  1.46195469E+01  1.04410352E+05    8    8    1       1
      6  1.89987598E+03  8.00000000E+03  2.29597511E-03  1.55257874E+01  1.05074359E+05    8    9    1       1
      6  2.00000000E+03  7.90815820E+03  2.17567245E-03  1.28962383E+01  1.05834117E+05    9    9    1       1
      6  2.16420923E+03  7.75000000E+03  2.01783632E-03  8.85343552E+00  1.07245500E+05    9   10    1       1
      6  2.25000000E+03  7.54162012E+03  1.82132621E-03  1.04112978E+01  1.08815664E+05   10   10    1       1
      6  2.27848389E+03  7.50000000E+03  1.77279825E-03  6.39052582E+00  1.09373562E+05   10   11    1       1
      6  2.45341626E+03  7.25000000E+03  1.47548423E-03  5.47032452E+00  1.13283742E+05   10   12    1       1
      6  2.50000000E+03  7.20165527E+03  1.41616142E-03  5.28159666E+00  1.14147047E+05   11   12    1       1
      6  2.75000000E+03  7.06687793E+03  1.18507037E-03  2.56061482E+00  1.18499844E+05   12   12    1       1
      6  3.00000000E+03  7.00840918E+03  1.02436147E-03  4.20773602E+00  1.21594820E+05   13   12    1       1
      6  3.25000000E+03  7.09514209E+03  8.29040247E-04  3.08474588E+00  1.26226492E+05   14   12    1       1
      6  3.46330347E+03  7.00000000E+03  6.46824948E-04  3.15027666E+00  1.31542734E+05   14   13    1       1
      6  3.50000000E+03  6.99150928E+03  6.32194686E-04  1.74398005E+00  1.32075766E+05   15   13    1       1
      7  5.93750000E+02  6.78125000E+03  6.66666687E-01  2.39970818E+01  0.00000000E+00    3   13    1       1
      7  7.50000000E+02  6.92071191E+03  3.47747318E-02  1.44228935E+01  6.47407578E+04    4   13    1       1
      7  7.69656250E+02  7.00000000E+03  2.43478585E-02  1.33054676E+01  7.30532969E+04    4   12    1       1
      7  8.02018066E+02  7.25000000E+03  1.32611021E-02  1.46878452E+01  8.57705312E+04    4   11    1       1
      7  8.31921204E+02  7.50000000E+03  9.54080001E-03  1.56436834E+01  9.20956719E+04    4   10    1       1
      7  8.61401855E+02  7.75000000E+03  7.72636477E-03  1.42422419E+01  9.64896172E+04    4    9    1       1
      7  8.95125305E+02  8.00000000E+03  6.71881670E-03  1.58243532E+01  9.89974219E+04    4    8    1       1
      7  1.00000000E+03  8.08785400E+03  6.42771879E-03  1.32785177E+01  9.99196250E+04    5    8    1       1
      7  1.25000000E+03  8.10201025E+03  5.83857857E-03  1.54110451E+01  1.01516695E+05    6    8    1       1
      7  1.50000000E+03  8.10613867E+03  5.30415820E-03  1.48892841E+01  1.03068984E+05    7    8    1       1
      7  1.75000000E+03  8.10346045E+03  4.85670054E-03  1.46450901E+01  1.04410352E+05    8    8    1       1
      7  1.89987598E+03  8.00000000E+03  4.59183380E-03  1.55445738E+01  1.05074359E+05    8    9    1       1
      7  2.00000000E+03  7.90815820E+03  4.35124710E-03  1.29174757E+01  1.05834117E+05    9    9    1       1
      7  2.16420923E+03  7.75000000E+03  4.03552549E-03  8.87956905E+00  1.07245500E+05    9   10    1       1
      7  2.25000000E+03  7.54162012E+03  3.64265242E-03  1.04305954E+01  1.08815664E+05   10   10    1       1
      7  2.27848389E+03  7.50000000E+03  3.54566332E-03  6.41585255E+00  1.09373562E+05   10   11    1       1
      7  2.45341626E+03  7.25000000E+03  2.95109814E-03  5.49205112E+00  1.13283742E+05   10   12    1       1
      7  2.50000000E+03  7.20165527E+03  2.83248676E-03  5.30219555E+00  1.14147047E+05   11   12    1       1
      7  2.75000000E+03  7.06687793E+03  2.37029605E-03  2.58063221E+00  1.18499844E+05   12   12    1       1
      7  3.00000000E+03  7.00840918E+03  2.04885285E-03  4.22277403E+00  1.21594820E+05   13   12    1       1
      7  3.25000000E+03  7.09514209E+03  1.65819086E-03  3.09729338E+00  1.26226492E+05   14   12    1       1
      7  3.46330347E+03  7.00000000E+03  1.29373046E-03  3.15985441E+00  1.31542734E+05   14   13    1       1
      7  3.50000000E+03  6.99150928E+03  1.26447086E-03  1.75416136E+00  1.32075766E+05   15   13    1       1
      8  5.93750000E+02  6.78125000E+03  9.99000013E-01  2.90324707E+01  0.00000000E+00    3   13    1       1
      8  7.50000000E+02  6.92071191E+03  5.21099828E-02  1.46855507E+01  6.47407578E+04    4   13    1       1
      8  7.69656250E+02  7.00000000E+03  3.64853442E-02  1.35011139E+01  7.30532969E+04    4   12    1       1
      8  8.02018066E+02  7.25000000E+03  1.98717453E-02  1.47834797E+01  8.57705312E+04    4   11    1       1
      8  8.31921204E+02  7.50000000E+03  1.42967999E-02  1.57068338E+01  9.20956719E+04    4   10    1       1
      8  8.61401855E+02  7.75000000E+03  1.15778893E-02  1.42976952E+01  9.64896172E+04    4    9    1       1
      8  8.95125305E+02  8.00000000E+03  1.00680776E-02  1.58659039E+01  9.89974219E+04    4    8    1       1
      8  1.00000000E+03  8.08785400E+03  9.63197090E-03  1.33246384E+01  9.99196250E+04    5    8    1       1
      8  1.25000000E+03  8.10201025E+03  8.74914788E-03  1.54444675E+01  1.01516695E+05    6    8    1       1
      8  1.50000000E+03  8.10613867E+03  7.94830173E-03  1.49188375E+01  1.03068984E+05    7    8    1       1
      8  1.75000000E+03  8.10346045E+03  7.27770757E-03  1.46705580E+01  1.04410352E+05    8    8    1       1
      8  1.89987598E+03  8.00000000E+03  6.88069966E-03  1.55633030E+01  1.05074359E+05    8    9    1       1
      8  2.00000000E+03  7.90815820E+03  6.52037375E-03  1.29386501E+01  1.05834117E+05    9    9    1       1
      8  2.16420923E+03  7.75000000E+03  6.04732428E-03  8.90562630E+00  1.07245500E+05    9   10    1       1
      8  2.25000000E+03  7.54162012E+03  5.45857800E-03  1.04498358E+01  1.08815664E+05   10   10    1       1
      8  2.27848389E+03  7.50000000E+03  5.31318784E-03  6.44110298E+00  1.09373562E+05   10   11    1       1
      8  2.45341626E+03  7.25000000E+03  4.42217803E-03  5.51371098E+00  1.13283742E+05   10   12    1       1
      8  2.50000000E+03  7.20165527E+03  4.24438622E-03  5.32273006E+00  1.14147047E+05   11   12    1       1
      8  2.75000000E+03  7.06687793E+03  3.55180912E-03  2.60058689E+00  1.18499844E+05   12   12    1       1
      8  3.00000000E+03  7.00840918E+03  3.07012815E-03  4.23776484E+00  1.21594820E+05   13   12    1       1
      8  3.25000000E+03  7.09514209E+03  2.48474185E-03  3.10980153E+00  1.26226492E+05   14   12    1       1
      8  3.46330347E+03  7.00000000E+03  1.93862303E-03  3.16940236E+00  1.31542734E+05   14   13    1       1
      8  3.50000000E+03  6.99150928E+03  1.89476297E-03  1.76431072E+00  1.32075766E+05   15   13    1       1
      9  6.56250000E+02  6.78125000E+03  1.00000005E-03  1.39111519E+01  0.00000000E+00    3   13    1       1
      9  7.50000000E+02  6.81822998E+03  1.80454881E-04  1.38987341E+01  3.75373789E+04    4   13    1       1
      9  8.17371277E+02  7.00000000E+03  4.59703915E-05  1.29137411E+01  6.94123750E+04    4   12    1       1
      9  8.43029419E+02  7.25000000E+03  2.50503017E-05  1.44963627E+01  8.21296094E+04    4   11    1       1
      9  8.66738220E+02  7.50000000E+03  1.80276638E-05  1.55172396E+01  8.84547500E+04    4   10    1       1
      9  8.90112061E+02  7.75000000E+03  1.45722970E-05  1.41312094E+01  9.28486953E+04    4    9    1       1
      9  9.16849792E+02  8.00000000E+03  1.26839741E-05  1.57411575E+01  9.53565000E+04    4    8    1       1
      9  1.00000000E+03  8.06932715E+03  1.22575348E-05  1.31861763E+01  9.60681797E+04    5    8    1       1
      9  1.25000000E+03  8.08049805E+03  1.11286954E-05  1.53441277E+01  9.76652500E+04    6    8    1       1
      9  1.50000000E+03  8.08375586E+03  1.00683783E-05  1.48301125E+01  9.92175391E+04    7    8    1       1
      9  1.75000000E+03  8.08164209E+03  9.24705910E-06  1.45940971E+01  1.00558906E+05    8    8    1       1
      9  1.86754773E+03  8.00000000E+03  8.97411610E-06  1.55070734E+01  1.01065797E+05    8    9    1       1
      9  2.00000000E+03  7.87725293E+03  8.20639798E-06  1.28750801E+01  1.02186336E+05    9    9    1       1
      9  2.13111816E+03  7.75000000E+03  7.73117335E-06  8.82740021E+00  1.03292609E+05    9   10    1       1
      9  2.22121509E+03  7.50000000E+03  6.84066208E-06  1.03920727E+01  1.05246484E+05    9   11    1       1
      9  2.25000000E+03  7.43371631E+03  6.47676961E-06  1.05510635E+01  1.05861914E+05   10   11    1       1
      9  2.36519580E+03  7.25000000E+03  5.63508047E-06  5.44868279E+00  1.08817320E+05   10   12    1       1
      9  2.50000000E+03  7.10392676E+03  4.95069617E-06  5.26107216E+00  1.11611102E+05   11   12    1       1
      9  2.70447339E+03  7.00000000E+03  4.24913287E-06  2.54067183E+00  1.15266000E+05   11   13    1       1
      9  2.75000000E+03  6.97913965E+03  4.11309520E-06  1.75327182E+00  1.16079648E+05   12   13    1       1
      9  3.00000000E+03  6.91743555E+03  3.52215147E-06  1.65216017E+00  1.19911828E+05   13   13    1       1
      9  3.25000000E+03  6.92133545E+03  3.03513093E-06  1.49325085E+00  1.23544930E+05   14   13    1       1
      9  3.50000000E+03  6.84855127E+03  2.59108333E-06  1.73384178E+00  1.27220641E+05   15   13    1       1
     10  6.56250000E+02  6.78125000E+03  3.33333343E-01  1.89465408E+01  0.00000000E+00    3   13    1       1
     10  7.50000000E+02  6.81822998E+03  6.01432770E-02  1.48072681E+01  3.75373789E+04    4   13    1       1
     10  8.17371277E+02  7.00000000E+03  1.53315095E-02  1.31601315E+01  6.94123750E+04    4   12    1       1
     10  8.43029419E+02  7.25000000E+03  8.35032016E-03  1.46168022E+01  8.21296094E+04    4   11    1       1
     10  8.66738220E+02  7.50000000E+03  6.00766530E-03  1.55967703E+01  8.84547500E+04    4   10    1       1
     10  8.90112061E+02  7.75000000E+03  4.86516021E-03  1.42010469E+01  9.28486953E+04    4    9    1       1
     10  9.16849792E+02  8.00000000E+03  4.23068181E-03  1.57934856E+01  9.53565000E+04    4    8    1       1
     10  1.00000000E+03  8.06932715E+03  4.08851728E-03  1.32448483E+01  9.60681797E+04    5    8    1       1
     10  1.25000000E+03  8.08049805E+03  3.71374539E-03  1.53866453E+01  9.76652500E+04    6    8    1       1
     10  1.50000000E+03  8.08375586E+03  3.37384525E-03  1.48677092E+01  9.92175391E+04    7    8    1       1
     10  1.75000000E+03  8.08164209E+03  3.08915228E-03  1.46264963E+01  1.00558906E+05    8    8    1       1
     10  1.86754773E+03  8.00000000E+03  2.95971008E-03  1.55312185E+01  1.01065797E+05    8    9    1       1
     10  2.00000000E+03  7.87725293E+03  2.73390277E-03  1.29016876E+01  1.02186336E+05    9    9    1       1
     10  2.13111816E+03  7.75000000E+03  2.57713161E-03  8.86067963E+00  1.03292609E+05    9   10    1       1
     10  2.22121509E+03  7.50000000E+03  2.26875953E-03  1.04160385E+01  1.05246484E+05    9   11    1       1
     10  2.25000000E+03  7.43371631E+03  2.17310130E-03  1.05724382E+01  1.05861914E+05   10   11    1       1
     10  2.36519580E+03  7.25000000E+03  1.89157343E-03  5.47645092E+00  1.08817320E+05   10   12    1       1
     10  2.50000000E+03  7.10392676E+03  1.65635219E-03  5.28508997E+00  1.11611102E+05   11   12    1       1
     10  2.70447339E+03  7.00000000E+03  1.42624043E-03  2.56468797E+00  1.15266000E+05   11   13    1       1
     10  2.75000000E+03  6.97913965E+03  1.38100935E-03  1.77729547E+00  1.16079648E+05   12   13    1       1
     10  3.00000000E+03  6.91743555E+03  1.18275243E-03  1.67231560E+00  1.19911828E+05   13   13    1       1
     10  3.25000000E+03  6.92133545E+03  1.01827574E-03  1.51027751E+00  1.23544930E+05   14   13    1       1
     10  3.50000000E+03  6.84855127E+03  8.69641546E-04  1.74780357E+00  1.27220641E+05   15   13    1       1
     11  6.56250000E+02  6.78125000E+03  6.66666687E-01  2.39970818E+01  0.00000000E+00    3   13    1       1
     11  7.50000000E+02  6.81822998E+03  1.20286554E-01  1.57185364E+01  3.75373789E+04    4   13    1       1
     11  8.17371277E+02  7.00000000E+03  3.06630190E-02  1.34072628E+01  6.94123750E+04    4   12    1       1
     11  8.43029419E+02  7.25000000E+03  1.67006403E-02  1.47376041E+01  8.21296094E+04    4   11    1       1
     11  8.66738220E+02  7.50000000E+03  1.20154023E-02  1.56765413E+01  8.84547500E+04    4   10    1       1
     11  8.90112061E+02  7.75000000E+03  9.73038655E-03  1.42710953E+01  9.28486953E+04    4    9    1       1
     11  9.16849792E+02  8.00000000E+03  8.46151728E-03  1.58459730E+01  9.53565000E+04    4    8    1       1
     11  1.00000000E+03  8.06932715E+03  8.17716774E-03  1.33036985E+01  9.60681797E+04    5    8    1       1
     11  1.25000000E+03  8.08049805E+03  7.42765702E-03  1.54292927E+01  9.76652500E+04    6    8    1       1
     11  1.50000000E+03  8.08375586E+03  6.74777571E-03  1.49054193E+01  9.92175391E+04    7    8    1       1
     11  1.75000000E+03  8.08164209E+03  6.17848616E-03  1.46589947E+01  1.00558906E+05    8    8    1       1
     11  1.86754773E+03  8.00000000E+03  5.91953704E-03  1.55554380E+01  1.01065797E+05    8    9    1       1
     11  2.00000000E+03  7.87725293E+03  5.46800112E-03  1.29283772E+01  1.02186336E+05    9    9    1       1
     11  2.13111816E+03  7.75000000E+03  5.15455753E-03  8.89406300E+00  1.03292609E+05    9   10    1       1
     11  2.22121509E+03  7.50000000E+03  4.53769928E-03  1.04400787E+01  1.05246484E+05    9   11    1       1
     11  2.25000000E+03  7.43371631E+03  4.34620259E-03  1.05938768E+01  1.05861914E+05   10   11    1       1
     11  2.36519580E+03  7.25000000E+03  3.78317921E-03  5.50430250E+00  1.08817320E+05   10   12    1       1
     11  2.50000000E+03  7.10392676E+03  3.31280264E-03  5.30918121E+00  1.11611102E+05   11   12    1       1
     11  2.70447339E+03  7.00000000E+03  2.85255164E-03  2.58877707E+00  1.15266000E+05   11   13    1       1
     11  2.75000000E+03  6.97913965E+03  2.76207342E-03  1.80139184E+00  1.16079648E+05   12   13    1       1
     11  3.00000000E+03  6.91743555E+03  2.36554677E-03  1.69253194E+00  1.19911828E+05   13   13    1       1
     11  3.25000000E+03  6.92133545E+03  2.03658710E-03  1.52735567E+00  1.23544930E+05   14   13    1       1
     11  3.50000000E+03  6.84855127E+03  1.73932756E-03  1.76180780E+00  1.27220641E+05   15   13    1       1
     12  6.56250000E+02  6.78125000E+03  9.99000013E-01  2.90324707E+01  0.00000000E+00    3   13    1       1
     12  7.50000000E+02  6.81822998E+03  1.80249438E-01  1.66270714E+01  3.75373789E+04    4   13    1       1
     12  8.17371277E+02  7.00000000E+03  4.59485576E-02  1.36536531E+01  6.94123750E+04    4   12    1       1
     12  8.43029419E+02  7.25000000E+03  2.50259098E-02  1.48580437E+01  8.21296094E+04    4   11    1       1
     12  8.66738220E+02  7.50000000E+03  1.80050395E-02  1.57560720E+01  8.84547500E+04    4   10    1       1
     12  8.90112061E+02  7.75000000E+03  1.45809082E-02  1.43409319E+01  9.28486953E+04    4    9    1       1
     12  9.16849792E+02  8.00000000E+03  1.26795927E-02  1.58983021E+01  9.53565000E+04    4    8    1       1
     12  1.00000000E+03  8.06932715E+03  1.22536262E-02  1.33623734E+01  9.60681797E+04    5    8    1       1
     12  1.25000000E+03  8.08049805E+03  1.11305229E-02  1.54718132E+01  9.76652500E+04    6    8    1       1
     12  1.50000000E+03  8.08375586E+03  1.01117231E-02  1.49430180E+01  9.92175391E+04    7    8    1       1
     12  1.75000000E+03  8.08164209E+03  9.25866328E-03  1.46913967E+01  1.00558906E+05    8    8    1       1
     12  1.86754773E+03  8.00000000E+03  8.87050573E-03  1.55795851E+01  1.01065797E+05    8    9    1       1
     12  2.00000000E+03  7.87725293E+03  8.19389336E-03  1.29549866E+01  1.02186336E+05    9    9    1       1
     12  2.13111816E+03  7.75000000E+03  7.72410538E-03  8.92734432E+00  1.03292609E+05    9   10    1       1
     12  2.22121509E+03  7.50000000E+03  6.79970812E-03  1.04640455E+01  1.05246484E+05    9   11    1       1
     12  2.25000000E+03  7.43371631E+03  6.51263352E-03  1.06152496E+01  1.05861914E+05   10   11    1       1
     12  2.36519580E+03  7.25000000E+03  5.66895539E-03  5.53206825E+00  1.08817320E+05   10   12    1       1
     12  2.50000000E+03  7.10392676E+03  4.96410578E-03  5.33319759E+00  1.11611102E+05   11   12    1       1
     12  2.70447339E+03  7.00000000E+03  4.27444419E-03  2.61279154E+00  1.15266000E+05   11   13    1       1
     12  2.75000000E+03  6.97913965E+03  4.13886039E-03  1.82541358E+00  1.16079648E+05   12   13    1       1
     12  3.00000000E+03  6.91743555E+03  3.54467239E-03  1.71268559E+00  1.19911828E+05   13   13    1       1
     12  3.25000000E+03  6.92133545E+03  3.05173546E-03  1.54438078E+00  1.23544930E+05   14   13    1       1