@ [ MODPATH 5.0 (TREF=   0.000000E+00 ) ]
   0       1    4   14    1  1.53200E+03  4.03000E+03  3.02063E+02  9.99000E-01  0.00000E+00       1
   0       2   11   14    1  3.83000E+03  4.03000E+03  2.98966E+02  9.99000E-01  0.00000E+00       1
   1       1    6   14    1  2.32830E+03  4.02999E+03  2.38411E+02  2.26114E-01  5.00000E+03       1
   1       2   22   14    1  5.92899E+03  4.02999E+03  2.38282E+02  2.47930E-01  5.00000E+03       1
   2       1    8   14    2  2.93053E+03  4.02999E+03  1.88148E+02  7.62963E-01  1.00000E+04       1
