@ [ MODPATH 5.0 (TREF=   0.000000E+00 ) ]
   0       1    8   14    1  2.81250E+03  4.03000E+03  3.00365E+02  9.99900E-01  0.00000E+00       1
   0       2    8   14    1  2.83750E+03  4.03000E+03  3.00365E+02  9.99900E-01  0.00000E+00       1
   0       3    8   14    1  2.86250E+03  4.03000E+03  3.00365E+02  9.99900E-01  0.00000E+00       1
   0       4    8   14    1  2.88750E+03  4.03000E+03  3.00365E+02  9.99900E-01  0.00000E+00       1
   0       5    8   14    1  2.91250E+03  4.03000E+03  3.00365E+02  9.99900E-01  0.00000E+00       1
   0       6    8   14    1  2.93750E+03  4.03000E+03  3.00365E+02  9.99900E-01  0.00000E+00       1
   0       7    8   14    1  2.96250E+03  4.03000E+03  3.00365E+02  9.99900E-01  0.00000E+00       1
   0       8    8   14    1  2.98750E+03  4.03000E+03  3.00365E+02  9.99900E-01  0.00000E+00       1
   0       9    8   14    1  3.01250E+03  4.03000E+03  3.00365E+02  9.99900E-01  0.00000E+00       1
   0      10    8   14    1  3.03750E+03  4.03000E+03  3.00365E+02  9.99900E-01  0.00000E+00       1
   0      11    8   14    1  3.06250E+03  4.03000E+03  3.00365E+02  9.99900E-01  0.00000E+00       1
   0      12    8   14    1  3.08750E+03  4.03000E+03  3.00365E+02  9.99900E-01  0.00000E+00       1
   0      13    8   14    1  3.11250E+03  4.03000E+03  3.00365E+02  9.99900E-01  0.00000E+00       1
   0      14    8   14    1  3.13750E+03  4.03000E+03  3.00365E+02  9.99900E-01  0.00000E+00       1
   0      15    8   14    1  3.16250E+03  4.03000E+03  3.00365E+02  9.99900E-01  0.00000E+00       1
   0      16    8   14    1  3.18750E+03  4.03000E+03  3.00365E+02  9.99900E-01  0.00000E+00       1
   0      17    9   14    1  3.20938E+03  4.03000E+03  2.99801E+02  9.99900E-01  0.00000E+00       1
   0      18    9   14    1  3.22812E+03  4.03000E+03  2.99801E+02  9.99900E-01  0.00000E+00       1
   0      19    9   14    1  3.24688E+03  4.03000E+03  2.99801E+02  9.99900E-01  0.00000E+00       1
   0      20    9   14    1  3.26562E+03  4.03000E+03  2.99801E+02  9.99900E-01  0.00000E+00       1
   0      21    9   14    1  3.28438E+03  4.03000E+03  2.99801E+02  9.99900E-01  0.00000E+00       1
   0      22    9   14    1  3.30312E+03  4.03000E+03  2.99801E+02  9.99900E-01  0.00000E+00       1
   0      23    9   14    1  3.32188E+03  4.03000E+03  2.99801E+02  9.99900E-01  0.00000E+00       1
   0      24    9   14    1  3.34062E+03  4.03000E+03  2.99801E+02  9.99900E-01  0.00000E+00       1
   0      25    9   14    1  3.35938E+03  4.03000E+03  2.99801E+02  9.99900E-01  0.00000E+00       1
   0      26    9   14    1  3.37812E+03  4.03000E+03  2.99801E+02  9.99900E-01  0.00000E+00       1
   0      27    9   14    1  3.39688E+03  4.03000E+03  2.99801E+02  9.99900E-01  0.00000E+00       1
   0      28    9   14    1  3.41562E+03  4.03000E+03  2.99801E+02  9.99900E-01  0.00000E+00       1
   0      29    9   14    1  3.43438E+03  4.03000E+03  2.99801E+02  9.99900E-01  0.00000E+00       1
   0      30    9   14    1  3.45312E+03  4.03000E+03  2.99801E+02  9.99900E-01  0.00000E+00       1
   0      31    9   14    1  3.47188E+03  4.03000E+03  2.99801E+02  9.99900E-01  0.00000E+00       1
   0      32    9   14    1  3.49062E+03  4.03000E+03  2.99801E+02  9.99900E-01  0.00000E+00       1
   1       1    9   14    1  3.27905E+03  4.03000E+03  2.73919E+02  6.75609E-01  1.82500E+03       1
   1       2    9   14    1  3.30808E+03  4.03000E+03  2.73890E+02  6.75241E-01  1.82500E+03       1
   1       3    9   14    1  3.33710E+03  4.03000E+03  2.73862E+02  6.74893E-01  1.82500E+03       1
   1       4    9   14    1  3.36611E+03  4.03000E+03  2.73836E+02  6.74565E-01  1.82500E+03       1
   1       5    9   14    1  3.39511E+03  4.03000E+03  2.73811E+02  6.74257E-01  1.82500E+03       1
   1       6    9   14    1  3.42410E+03  4.03000E+03  2.73788E+02  6.73967E-01  1.82500E+03       1
   1       7    9   14    1  3.45307E+03  4.03000E+03  2.73767E+02  6.73695E-01  1.82500E+03       1
   1       8    9   14    1  3.48204E+03  4.03000E+03  2.73746E+02  6.73441E-01  1.82500E+03       1
   1       9   10   14    1  3.51105E+03  4.03000E+03  2.73422E+02  6.73086E-01  1.82500E+03       1
   1      10   10   14    1  3.54014E+03  4.03000E+03  2.73380E+02  6.72560E-01  1.82500E+03       1
   1      11   10   14    1  3.56922E+03  4.03000E+03  2.73341E+02  6.72065E-01  1.82500E+03       1
   1      12   10   14    1  3.59827E+03  4.03000E+03  2.73304E+02  6.71600E-01  1.82500E+03       1
   1      13   10   14    1  3.62730E+03  4.03000E+03  2.73270E+02  6.71165E-01  1.82500E+03       1
   1      14   10   14    1  3.65631E+03  4.03000E+03  2.73237E+02  6.70758E-01  1.82500E+03       1
   1      15   10   14    1  3.68530E+03  4.03000E+03  2.73207E+02  6.70380E-01  1.82500E+03       1
   1      16   11   14    1  3.71433E+03  4.03000E+03  2.72955E+02  6.69936E-01  1.82500E+03       1
   1      17   11   14    1  3.73969E+03  4.03000E+03  2.72923E+02  6.69533E-01  1.82500E+03       1
   1      18   11   14    1  3.76133E+03  4.03000E+03  2.72901E+02  6.69251E-01  1.82500E+03       1
   1      19   11   14    1  3.78296E+03  4.03000E+03  2.72879E+02  6.68980E-01  1.82500E+03       1
   1      20   11   14    1  3.80458E+03  4.03000E+03  2.72859E+02  6.68719E-01  1.82500E+03       1
   1      21   11   14    1  3.82620E+03  4.03000E+03  2.72839E+02  6.68469E-01  1.82500E+03       1
   1      22   11   14    1  3.84780E+03  4.03000E+03  2.72820E+02  6.68229E-01  1.82500E+03       1
   1      23   12   14    1  3.86946E+03  4.03000E+03  2.72637E+02  6.67942E-01  1.82500E+03       1
   1      24   12   14    1  3.89112E+03  4.03000E+03  2.72615E+02  6.67659E-01  1.82500E+03       1
   1      25   12   14    1  3.91277E+03  4.03000E+03  2.72593E+02  6.67388E-01  1.82500E+03       1
   1      26   12   14    1  3.93442E+03  4.03000E+03  2.72573E+02  6.67127E-01  1.82500E+03       1
   1      27   13   14    1  3.95606E+03  4.03000E+03  2.72448E+02  6.66872E-01  1.82500E+03       1
   1      28   13   14    1  3.97774E+03  4.03000E+03  2.72427E+02  6.66617E-01  1.82500E+03       1
   1      29   13   14    1  3.99940E+03  4.03000E+03  2.72408E+02  6.66372E-01  1.82500E+03       1
   1      30   14   14    1  4.02108E+03  4.03000E+03  2.72323E+02  6.66137E-01  1.82500E+03       1
   1      31   14   14    1  4.04276E+03  4.02999E+03  2.72306E+02  6.65913E-01  1.82500E+03       1
   1      32   15   14    1  4.06446E+03  4.02999E+03  2.72222E+02  6.65704E-01  1.82500E+03       1
   1      33    9   14    1  3.22906E+03  4.03000E+03  2.76434E+02  7.07120E-01  1.82500E+03       1
   1      34    9   14    1  3.25769E+03  4.03000E+03  2.76405E+02  7.06749E-01  1.82500E+03       1
   1      35    9   14    1  3.28632E+03  4.03000E+03  2.76377E+02  7.06398E-01  1.82500E+03       1
   1      36    9   14    1  3.31494E+03  4.03000E+03  2.76350E+02  7.06067E-01  1.82500E+03       1
   1      37    9   14    1  3.34354E+03  4.03000E+03  2.76325E+02  7.05756E-01  1.82500E+03       1
   1      38    9   14    1  3.37214E+03  4.03000E+03  2.76302E+02  7.05463E-01  1.82500E+03       1
   1      39    9   14    1  3.40072E+03  4.03000E+03  2.76280E+02  7.05189E-01  1.82500E+03       1
   1      40    9   14    1  3.42929E+03  4.03000E+03  2.76260E+02  7.04933E-01  1.82500E+03       1
   1      41    9   14    1  3.45785E+03  4.03000E+03  2.76241E+02  7.04695E-01  1.82500E+03       1
   1      42    9   14    1  3.48640E+03  4.03000E+03  2.76223E+02  7.04474E-01  1.82500E+03       1
   1      43   10   14    1  3.51502E+03  4.03000E+03  2.75885E+02  7.04117E-01  1.82500E+03       1
   1      44   10   14    1  3.54369E+03  4.03000E+03  2.75848E+02  7.03648E-01  1.82500E+03       1
   1      45   10   14    1  3.57235E+03  4.03000E+03  2.75813E+02  7.03210E-01  1.82500E+03       1
   1      46   10   14    1  3.60098E+03  4.03000E+03  2.75781E+02  7.02799E-01  1.82500E+03       1
   1      47   10   14    1  3.62960E+03  4.03000E+03  2.75750E+02  7.02418E-01  1.82500E+03       1
   1      48   10   14    1  3.65819E+03  4.03000E+03  2.75722E+02  7.02063E-01  1.82500E+03       1
   1      49   10   14    1  3.68312E+03  4.03000E+03  2.75703E+02  7.01817E-01  1.82500E+03       1
   1      50   11   14    1  3.70442E+03  4.03000E+03  2.75461E+02  7.01638E-01  1.82500E+03       1
   1      51   11   14    1  3.72577E+03  4.03000E+03  2.75439E+02  7.01365E-01  1.82500E+03       1
   1      52   11   14    1  3.74712E+03  4.03000E+03  2.75419E+02  7.01103E-01  1.82500E+03       1
   1      53   11   14    1  3.76847E+03  4.03000E+03  2.75399E+02  7.00851E-01  1.82500E+03       1
   1      54   11   14    1  3.78980E+03  4.03000E+03  2.75380E+02  7.00609E-01  1.82500E+03       1
   1      55   11   14    1  3.81113E+03  4.03000E+03  2.75361E+02  7.00377E-01  1.82500E+03       1
   1      56   11   14    1  3.83245E+03  4.03000E+03  2.75344E+02  7.00156E-01  1.82500E+03       1
   1      57   12   14    1  3.85377E+03  4.03000E+03  2.75158E+02  6.99934E-01  1.82500E+03       1
   1      58   12   14    1  3.87514E+03  4.03000E+03  2.75137E+02  6.99671E-01  1.82500E+03       1
   1      59   12   14    1  3.89650E+03  4.03000E+03  2.75117E+02  6.99419E-01  1.82500E+03       1
   1      60   12   14    1  3.91786E+03  4.03000E+03  2.75098E+02  6.99178E-01  1.82500E+03       1
   1      61   12   14    1  3.93921E+03  4.03000E+03  2.75080E+02  6.98947E-01  1.82500E+03       1
   1      62   13   14    1  3.96057E+03  4.03000E+03  2.74952E+02  6.98718E-01  1.82500E+03       1
   1      63   13   14    1  3.98194E+03  4.03000E+03  2.74934E+02  6.98492E-01  1.82500E+03       1
   1      64   13   14    1  4.00331E+03  4.03000E+03  2.74917E+02  6.98274E-01  1.82500E+03       1
   1      65    8   14    1  3.17989E+03  4.03000E+03  2.79367E+02  7.38647E-01  1.82500E+03       1
   1      66    9   14    1  3.20799E+03  4.03000E+03  2.78942E+02  7.38543E-01  1.82500E+03       1
   1      67    9   14    1  3.23623E+03  4.03000E+03  2.78914E+02  7.38189E-01  1.82500E+03       1
   1      68    9   14    1  3.26446E+03  4.03000E+03  2.78887E+02  7.37855E-01  1.82500E+03       1
   1      69    9   14    1  3.29268E+03  4.03000E+03  2.78862E+02  7.37541E-01  1.82500E+03       1
   1      70    9   14    1  3.32088E+03  4.03000E+03  2.78839E+02  7.37246E-01  1.82500E+03       1
   1      71    9   14    1  3.34908E+03  4.03000E+03  2.78816E+02  7.36969E-01  1.82500E+03       1
   1      72    9   14    1  3.37726E+03  4.03000E+03  2.78796E+02  7.36711E-01  1.82500E+03       1
   1      73    9   14    1  3.40543E+03  4.03000E+03  2.78777E+02  7.36470E-01  1.82500E+03       1
   1      74    9   14    1  3.43359E+03  4.03000E+03  2.78759E+02  7.36247E-01  1.82500E+03       1
   1      75    9   14    1  3.46174E+03  4.03000E+03  2.78742E+02  7.36041E-01  1.82500E+03       1
   1      76    9   14    1  3.48988E+03  4.03000E+03  2.78727E+02  7.35850E-01  1.82500E+03       1
   1      77   10   14    1  3.51811E+03  4.03000E+03  2.78376E+02  7.35506E-01  1.82500E+03       1
   1      78   10   14    1  3.54637E+03  4.03000E+03  2.78344E+02  7.35093E-01  1.82500E+03       1
   1      79   10   14    1  3.57461E+03  4.03000E+03  2.78313E+02  7.34708E-01  1.82500E+03       1
   1      80   10   14    1  3.60284E+03  4.03000E+03  2.78285E+02  7.34351E-01  1.82500E+03       1
   1      81   10   14    1  3.62745E+03  4.03000E+03  2.78265E+02  7.34103E-01  1.82500E+03       1
   1      82   10   14    1  3.64845E+03  4.03000E+03  2.78253E+02  7.33949E-01  1.82500E+03       1
   1      83   10   14    1  3.66944E+03  4.03000E+03  2.78241E+02  7.33803E-01  1.82500E+03       1
   1      84   10   14    1  3.69043E+03  4.03000E+03  2.78230E+02  7.33663E-01  1.82500E+03       1
   1      85   11   14    1  3.71147E+03  4.03000E+03  2.77977E+02  7.33464E-01  1.82500E+03       1
   1      86   11   14    1  3.73253E+03  4.03000E+03  2.77957E+02  7.33221E-01  1.82500E+03       1
   1      87   11   14    1  3.75359E+03  4.03000E+03  2.77939E+02  7.32988E-01  1.82500E+03       1
   1      88   11   14    1  3.77464E+03  4.03000E+03  2.77921E+02  7.32764E-01  1.82500E+03       1
   1      89   11   14    1  3.79568E+03  4.03000E+03  2.77904E+02  7.32552E-01  1.82500E+03       1
   1      90   11   14    1  3.81671E+03  4.03000E+03  2.77888E+02  7.32348E-01  1.82500E+03       1
   1      91   11   14    1  3.83774E+03  4.03000E+03  2.77873E+02  7.32153E-01  1.82500E+03       1
   1      92   12   14    1  3.85879E+03  4.03000E+03  2.77681E+02  7.31944E-01  1.82500E+03       1
   1      93   12   14    1  3.87987E+03  4.03000E+03  2.77662E+02  7.31712E-01  1.82500E+03       1
   1      94   12   14    1  3.90094E+03  4.03000E+03  2.77645E+02  7.31490E-01  1.82500E+03       1
   1      95   12   14    1  3.92200E+03  4.03000E+03  2.77628E+02  7.31278E-01  1.82500E+03       1
   1      96   12   14    1  3.94306E+03  4.03000E+03  2.77612E+02  7.31076E-01  1.82500E+03       1
   1      97    8   14    1  3.13162E+03  4.03000E+03  2.81896E+02  7.70107E-01  1.82500E+03       1
   1      98    8   14    1  3.15927E+03  4.03000E+03  2.81896E+02  7.70107E-01  1.82500E+03       1
   1      99    8   14    1  3.18692E+03  4.03000E+03  2.81896E+02  7.70107E-01  1.82500E+03       1
   1     100    9   14    1  3.21467E+03  4.03000E+03  2.81447E+02  7.69931E-01  1.82500E+03       1
   1     101    9   14    1  3.24250E+03  4.03000E+03  2.81422E+02  7.69614E-01  1.82500E+03       1
   1     102    9   14    1  3.27032E+03  4.03000E+03  2.81398E+02  7.69317E-01  1.82500E+03       1
   1     103    9   14    1  3.29813E+03  4.03000E+03  2.81376E+02  7.69038E-01  1.82500E+03       1
   1     104    9   14    1  3.32593E+03  4.03000E+03  2.81355E+02  7.68777E-01  1.82500E+03       1
   1     105    9   14    1  3.35372E+03  4.03000E+03  2.81336E+02  7.68534E-01  1.82500E+03       1
   1     106    9   14    1  3.38150E+03  4.03000E+03  2.81318E+02  7.68309E-01  1.82500E+03       1
   1     107    9   14    1  3.40927E+03  4.03000E+03  2.81301E+02  7.68101E-01  1.82500E+03       1
   1     108    9   14    1  3.43703E+03  4.03000E+03  2.81286E+02  7.67908E-01  1.82500E+03       1
   1     109    9   14    1  3.46477E+03  4.03000E+03  2.81272E+02  7.67733E-01  1.82500E+03       1
   1     110    9   14    1  3.49251E+03  4.03000E+03  2.81259E+02  7.67572E-01  1.82500E+03       1
   1     111   10   14    1  3.52034E+03  4.03000E+03  2.80896E+02  7.67251E-01  1.82500E+03       1
   1     112   10   14    1  3.54820E+03  4.03000E+03  2.80867E+02  7.66891E-01  1.82500E+03       1
   1     113   10   14    1  3.57249E+03  4.03000E+03  2.80848E+02  7.66641E-01  1.82500E+03       1
   1     114   10   14    1  3.59322E+03  4.03000E+03  2.80835E+02  7.66486E-01  1.82500E+03       1
   1     115   10   14    1  3.61394E+03  4.03000E+03  2.80824E+02  7.66339E-01  1.82500E+03       1
   1     116   10   14    1  3.63466E+03  4.03000E+03  2.80812E+02  7.66198E-01  1.82500E+03       1
   1     117   10   14    1  3.65538E+03  4.03000E+03  2.80802E+02  7.66064E-01  1.82500E+03       1
   1     118   10   14    1  3.67608E+03  4.03000E+03  2.80792E+02  7.65936E-01  1.82500E+03       1
   1     119   10   14    1  3.69679E+03  4.03000E+03  2.80782E+02  7.65814E-01  1.82500E+03       1
   1     120   11   14    1  3.71756E+03  4.03000E+03  2.80517E+02  7.65606E-01  1.82500E+03       1
   1     121   11   14    1  3.73833E+03  4.03000E+03  2.80500E+02  7.65392E-01  1.82500E+03       1
   1     122   11   14    1  3.75910E+03  4.03000E+03  2.80484E+02  7.65187E-01  1.82500E+03       1
   1     123   11   14    1  3.77987E+03  4.03000E+03  2.80469E+02  7.64991E-01  1.82500E+03       1
   1     124   11   14    1  3.80062E+03  4.03000E+03  2.80454E+02  7.64805E-01  1.82500E+03       1
   1     125   11   14    1  3.82137E+03  4.03000E+03  2.80440E+02  7.64628E-01  1.82500E+03       1
   1     126   11   14    1  3.84211E+03  4.03000E+03  2.80427E+02  7.64460E-01  1.82500E+03       1
   1     127   12   14    1  3.86288E+03  4.03000E+03  2.80228E+02  7.64268E-01  1.82500E+03       1
   1     128   12   14    1  3.88367E+03  4.03000E+03  2.80212E+02  7.64065E-01  1.82500E+03       1
   1     129    8   14    1  3.08404E+03  4.03000E+03  2.84451E+02  8.01901E-01  1.82500E+03       1
   1     130    8   14    1  3.11129E+03  4.03000E+03  2.84451E+02  8.01901E-01  1.82500E+03       1
   1     131    8   14    1  3.13855E+03  4.03000E+03  2.84451E+02  8.01901E-01  1.82500E+03       1
   1     132    8   14    1  3.16580E+03  4.03000E+03  2.84451E+02  8.01901E-01  1.82500E+03       1
   1     133    8   14    1  3.19306E+03  4.03000E+03  2.84451E+02  8.01901E-01  1.82500E+03       1
   1     134    9   14    1  3.22045E+03  4.03000E+03  2.83981E+02  8.01679E-01  1.82500E+03       1
   1     135    9   14    1  3.24788E+03  4.03000E+03  2.83958E+02  8.01397E-01  1.82500E+03       1
   1     136    9   14    1  3.27531E+03  4.03000E+03  2.83937E+02  8.01134E-01  1.82500E+03       1
   1     137    9   14    1  3.30272E+03  4.03000E+03  2.83918E+02  8.00890E-01  1.82500E+03       1
   1     138    9   14    1  3.33012E+03  4.03000E+03  2.83900E+02  8.00662E-01  1.82500E+03       1
   1     139    9   14    1  3.35751E+03  4.03000E+03  2.83883E+02  8.00451E-01  1.82500E+03       1
   1     140    9   14    1  3.38489E+03  4.03000E+03  2.83867E+02  8.00258E-01  1.82500E+03       1
   1     141    9   14    1  3.41226E+03  4.03000E+03  2.83853E+02  8.00081E-01  1.82500E+03       1
   1     142    9   14    1  3.43962E+03  4.03000E+03  2.83840E+02  7.99918E-01  1.82500E+03       1
   1     143    9   14    1  3.46697E+03  4.03000E+03  2.83829E+02  7.99772E-01  1.82500E+03       1
   1     144    9   14    1  3.49431E+03  4.03000E+03  2.83818E+02  7.99641E-01  1.82500E+03       1
   1     145   10   14    1  3.51825E+03  4.03000E+03  2.83450E+02  7.99435E-01  1.82500E+03       1
   1     146   10   14    1  3.53871E+03  4.03000E+03  2.83438E+02  7.99280E-01  1.82500E+03       1
   1     147   10   14    1  3.55916E+03  4.03000E+03  2.83426E+02  7.99131E-01  1.82500E+03       1
   1     148   10   14    1  3.57961E+03  4.03000E+03  2.83415E+02  7.98989E-01  1.82500E+03       1
   1     149   10   14    1  3.60006E+03  4.03000E+03  2.83404E+02  7.98853E-01  1.82500E+03       1
   1     150   10   14    1  3.62050E+03  4.03000E+03  2.83394E+02  7.98724E-01  1.82500E+03       1
   1     151   10   14    1  3.64093E+03  4.03000E+03  2.83384E+02  7.98602E-01  1.82500E+03       1
   1     152   10   14    1  3.66137E+03  4.03000E+03  2.83375E+02  7.98486E-01  1.82500E+03       1
   1     153   10   14    1  3.68179E+03  4.03000E+03  2.83366E+02  7.98376E-01  1.82500E+03       1
   1     154   11   14    1  3.70222E+03  4.03000E+03  2.83098E+02  7.98261E-01  1.82500E+03       1
   1     155   11   14    1  3.72272E+03  4.03000E+03  2.83083E+02  7.98064E-01  1.82500E+03       1
   1     156   11   14    1  3.74321E+03  4.03000E+03  2.83068E+02  7.97876E-01  1.82500E+03       1
   1     157   11   14    1  3.76370E+03  4.03000E+03  2.83054E+02  7.97699E-01  1.82500E+03       1
   1     158   11   14    1  3.78418E+03  4.03000E+03  2.83041E+02  7.97530E-01  1.82500E+03       1
   1     159   11   14    1  3.80465E+03  4.03000E+03  2.83028E+02  7.97370E-01  1.82500E+03       1
   1     160   11   14    1  3.82512E+03  4.03000E+03  2.83016E+02  7.97219E-01  1.82500E+03       1
   1     161    8   14    1  3.03714E+03  4.03000E+03  2.87034E+02  8.34034E-01  1.82500E+03       1
   1     162    8   14    1  3.06400E+03  4.03000E+03  2.87034E+02  8.34034E-01  1.82500E+03       1
   1     163    8   14    1  3.09087E+03  4.03000E+03  2.87034E+02  8.34034E-01  1.82500E+03       1
   1     164    8   14    1  3.11773E+03  4.03000E+03  2.87034E+02  8.34034E-01  1.82500E+03       1
   1     165    8   14    1  3.14460E+03  4.03000E+03  2.87034E+02  8.34034E-01  1.82500E+03       1
   1     166    8   14    1  3.17146E+03  4.03000E+03  2.87034E+02  8.34034E-01  1.82500E+03       1
   1     167    8   14    1  3.19833E+03  4.03000E+03  2.87034E+02  8.34034E-01  1.82500E+03       1
   1     168    9   14    1  3.22537E+03  4.03000E+03  2.86543E+02  8.33785E-01  1.82500E+03       1
   1     169    9   14    1  3.25241E+03  4.03000E+03  2.86523E+02  8.33538E-01  1.82500E+03       1
   1     170    9   14    1  3.27943E+03  4.03000E+03  2.86505E+02  8.33309E-01  1.82500E+03       1
   1     171    9   14    1  3.30645E+03  4.03000E+03  2.86488E+02  8.33096E-01  1.82500E+03       1
   1     172    9   14    1  3.33346E+03  4.03000E+03  2.86473E+02  8.32901E-01  1.82500E+03       1
   1     173    9   14    1  3.36046E+03  4.03000E+03  2.86458E+02  8.32722E-01  1.82500E+03       1
   1     174    9   14    1  3.38745E+03  4.03000E+03  2.86445E+02  8.32558E-01  1.82500E+03       1
   1     175    9   14    1  3.41443E+03  4.03000E+03  2.86434E+02  8.32411E-01  1.82500E+03       1
   1     176    9   14    1  3.44140E+03  4.03000E+03  2.86423E+02  8.32278E-01  1.82500E+03       1
   1     177    9   14    1  3.46491E+03  4.03000E+03  2.86418E+02  8.32217E-01  1.82500E+03       1
   1     178    9   14    1  3.48499E+03  4.03000E+03  2.86418E+02  8.32217E-01  1.82500E+03       1
   1     179   10   14    1  3.50509E+03  4.03000E+03  2.86049E+02  8.32180E-01  1.82500E+03       1
   1     180   10   14    1  3.52528E+03  4.03000E+03  2.86038E+02  8.32037E-01  1.82500E+03       1
   1     181   10   14    1  3.54546E+03  4.03000E+03  2.86027E+02  8.31900E-01  1.82500E+03       1
   1     182   10   14    1  3.56563E+03  4.03000E+03  2.86017E+02  8.31770E-01  1.82500E+03       1
   1     183   10   14    1  3.58580E+03  4.03000E+03  2.86007E+02  8.31647E-01  1.82500E+03       1
   1     184   10   14    1  3.60597E+03  4.03000E+03  2.85998E+02  8.31530E-01  1.82500E+03       1
   1     185   10   14    1  3.62613E+03  4.03000E+03  2.85989E+02  8.31419E-01  1.82500E+03       1
   1     186   10   14    1  3.64629E+03  4.03000E+03  2.85981E+02  8.31314E-01  1.82500E+03       1
   1     187   10   14    1  3.66644E+03  4.03000E+03  2.85973E+02  8.31216E-01  1.82500E+03       1
   1     188   10   14    1  3.68659E+03  4.03000E+03  2.85965E+02  8.31123E-01  1.82500E+03       1
   1     189   11   14    1  3.70676E+03  4.03000E+03  2.85687E+02  8.31006E-01  1.82500E+03       1
   1     190   11   14    1  3.72698E+03  4.03000E+03  2.85673E+02  8.30835E-01  1.82500E+03       1
   1     191   11   14    1  3.74719E+03  4.03000E+03  2.85661E+02  8.30675E-01  1.82500E+03       1
   1     192   11   14    1  3.76740E+03  4.03000E+03  2.85648E+02  8.30522E-01  1.82500E+03       1
   1     193    8   14    1  2.99091E+03  4.03000E+03  2.89644E+02  8.66508E-01  1.82500E+03       1
   1     194    8   14    1  3.01739E+03  4.03000E+03  2.89644E+02  8.66508E-01  1.82500E+03       1
   1     195    8   14    1  3.04387E+03  4.03000E+03  2.89644E+02  8.66508E-01  1.82500E+03       1
   1     196    8   14    1  3.07035E+03  4.03000E+03  2.89644E+02  8.66508E-01  1.82500E+03       1
   1     197    8   14    1  3.09683E+03  4.03000E+03  2.89644E+02  8.66508E-01  1.82500E+03       1
   1     198    8   14    1  3.12331E+03  4.03000E+03  2.89644E+02  8.66508E-01  1.82500E+03       1
   1     199    8   14    1  3.14980E+03  4.03000E+03  2.89644E+02  8.66508E-01  1.82500E+03       1
   1     200    8   14    1  3.17628E+03  4.03000E+03  2.89644E+02  8.66508E-01  1.82500E+03       1
   1     201    9   14    1  3.20278E+03  4.03000E+03  2.89153E+02  8.66484E-01  1.82500E+03       1
   1     202    9   14    1  3.22944E+03  4.03000E+03  2.89134E+02  8.66252E-01  1.82500E+03       1
   1     203    9   14    1  3.25609E+03  4.03000E+03  2.89117E+02  8.66038E-01  1.82500E+03       1
   1     204    9   14    1  3.28273E+03  4.03000E+03  2.89101E+02  8.65840E-01  1.82500E+03       1
   1     205    9   14    1  3.30936E+03  4.03000E+03  2.89087E+02  8.65660E-01  1.82500E+03       1
   1     206    9   14    1  3.33599E+03  4.03000E+03  2.89074E+02  8.65495E-01  1.82500E+03       1
   1     207    9   14    1  3.36260E+03  4.03000E+03  2.89062E+02  8.65346E-01  1.82500E+03       1
   1     208    9   14    1  3.38920E+03  4.03000E+03  2.89051E+02  8.65212E-01  1.82500E+03       1
   1     209    9   14    1  3.41240E+03  4.03000E+03  2.89046E+02  8.65150E-01  1.82500E+03       1
   1     210    9   14    1  3.43220E+03  4.03000E+03  2.89046E+02  8.65150E-01  1.82500E+03       1
   1     211    9   14    1  3.45201E+03  4.03000E+03  2.89046E+02  8.65150E-01  1.82500E+03       1
   1     212    9   14    1  3.47181E+03  4.03000E+03  2.89046E+02  8.65150E-01  1.82500E+03       1
   1     213    9   14    1  3.49161E+03  4.03000E+03  2.89046E+02  8.65150E-01  1.82500E+03       1
   1     214   10   14    1  3.51148E+03  4.03000E+03  2.88660E+02  8.65076E-01  1.82500E+03       1
   1     215   10   14    1  3.53139E+03  4.03000E+03  2.88650E+02  8.64951E-01  1.82500E+03       1
   1     216   10   14    1  3.55129E+03  4.03000E+03  2.88641E+02  8.64833E-01  1.82500E+03       1
   1     217   10   14    1  3.57119E+03  4.03000E+03  2.88632E+02  8.64722E-01  1.82500E+03       1
   1     218   10   14    1  3.59109E+03  4.03000E+03  2.88624E+02  8.64616E-01  1.82500E+03       1
   1     219   10   14    1  3.61098E+03  4.03000E+03  2.88616E+02  8.64517E-01  1.82500E+03       1
   1     220   10   14    1  3.63087E+03  4.03000E+03  2.88608E+02  8.64423E-01  1.82500E+03       1
   1     221   10   14    1  3.65075E+03  4.03000E+03  2.88602E+02  8.64336E-01  1.82500E+03       1
   1     222   10   14    1  3.67063E+03  4.03000E+03  2.88595E+02  8.64254E-01  1.82500E+03       1
   1     223   10   14    1  3.69050E+03  4.03000E+03  2.88589E+02  8.64178E-01  1.82500E+03       1
   1     224   11   14    1  3.71041E+03  4.03000E+03  2.88300E+02  8.64065E-01  1.82500E+03       1
   1     225    8   14    1  2.94534E+03  4.03000E+03  2.92282E+02  8.99329E-01  1.82500E+03       1
   1     226    8   14    1  2.97144E+03  4.03000E+03  2.92282E+02  8.99329E-01  1.82500E+03       1
   1     227    8   14    1  2.99755E+03  4.03000E+03  2.92282E+02  8.99329E-01  1.82500E+03       1
   1     228    8   14    1  3.02365E+03  4.03000E+03  2.92282E+02  8.99329E-01  1.82500E+03       1
   1     229    8   14    1  3.04975E+03  4.03000E+03  2.92282E+02  8.99329E-01  1.82500E+03       1
   1     230    8   14    1  3.07585E+03  4.03000E+03  2.92282E+02  8.99329E-01  1.82500E+03       1
   1     231    8   14    1  3.10196E+03  4.03000E+03  2.92282E+02  8.99329E-01  1.82500E+03       1
   1     232    8   14    1  3.12806E+03  4.03000E+03  2.92282E+02  8.99329E-01  1.82500E+03       1
   1     233    8   14    1  3.15416E+03  4.03000E+03  2.92282E+02  8.99329E-01  1.82500E+03       1
   1     234    8   14    1  3.18026E+03  4.03000E+03  2.92282E+02  8.99329E-01  1.82500E+03       1
   1     235    9   14    1  3.20641E+03  4.03000E+03  2.91770E+02  8.99278E-01  1.82500E+03       1
   1     236    9   14    1  3.23269E+03  4.03000E+03  2.91754E+02  8.99078E-01  1.82500E+03       1
   1     237    9   14    1  3.25896E+03  4.03000E+03  2.91740E+02  8.98896E-01  1.82500E+03       1
   1     238    9   14    1  3.28522E+03  4.03000E+03  2.91726E+02  8.98730E-01  1.82500E+03       1
   1     239    9   14    1  3.31147E+03  4.03000E+03  2.91714E+02  8.98580E-01  1.82500E+03       1
   1     240    9   14    1  3.33771E+03  4.03000E+03  2.91704E+02  8.98444E-01  1.82500E+03       1
   1     241    9   14    1  3.36060E+03  4.03000E+03  2.91699E+02  8.98382E-01  1.82500E+03       1
   1     242    9   14    1  3.38013E+03  4.03000E+03  2.91699E+02  8.98382E-01  1.82500E+03       1
   1     243    9   14    1  3.39967E+03  4.03000E+03  2.91699E+02  8.98382E-01  1.82500E+03       1
   1     244    9   14    1  3.41920E+03  4.03000E+03  2.91699E+02  8.98382E-01  1.82500E+03       1
   1     245    9   14    1  3.43874E+03  4.03000E+03  2.91699E+02  8.98382E-01  1.82500E+03       1
   1     246    9   14    1  3.45827E+03  4.03000E+03  2.91699E+02  8.98382E-01  1.82500E+03       1
   1     247    9   14    1  3.47781E+03  4.03000E+03  2.91699E+02  8.98382E-01  1.82500E+03       1
   1     248    9   14    1  3.49734E+03  4.03000E+03  2.91699E+02  8.98382E-01  1.82500E+03       1
   1     249   10   14    1  3.51697E+03  4.03000E+03  2.91296E+02  8.98286E-01  1.82500E+03       1
   1     250   10   14    1  3.53661E+03  4.03000E+03  2.91288E+02  8.98180E-01  1.82500E+03       1
   1     251   10   14    1  3.55624E+03  4.03000E+03  2.91280E+02  8.98079E-01  1.82500E+03       1
   1     252   10   14    1  3.57587E+03  4.03000E+03  2.91272E+02  8.97985E-01  1.82500E+03       1
   1     253   10   14    1  3.59549E+03  4.03000E+03  2.91265E+02  8.97897E-01  1.82500E+03       1
   1     254   10   14    1  3.61511E+03  4.03000E+03  2.91259E+02  8.97814E-01  1.82500E+03       1
   1     255   10   14    1  3.63473E+03  4.03000E+03  2.91253E+02  8.97738E-01  1.82500E+03       1
   1     256   10   14    1  3.65434E+03  4.03000E+03  2.91247E+02  8.97667E-01  1.82500E+03       1
   1     257    8   14    1  2.90042E+03  4.03000E+03  2.94948E+02  9.32498E-01  1.82500E+03       1
   1     258    8   14    1  2.92615E+03  4.03000E+03  2.94948E+02  9.32498E-01  1.82500E+03       1
   1     259    8   14    1  2.95188E+03  4.03000E+03  2.94948E+02  9.32498E-01  1.82500E+03       1
   1     260    8   14    1  2.97761E+03  4.03000E+03  2.94948E+02  9.32498E-01  1.82500E+03       1
   1     261    8   14    1  3.00334E+03  4.03000E+03  2.94948E+02  9.32498E-01  1.82500E+03       1