# MODFLOW-USGs Constant-Head Boundary Package (CHD)
         4 AUX C01 
 4    Stress Period 1
 119   -1.800000  -1.800000 0.000000e+00
 117   -1.800000  -1.800000 0.000000e+00
 120   -1.800000  -1.800000 0.000000e+00
 118   -1.800000  -1.800000 0.000000e+00
