# MODFLOW-USGs Recharge Package
 3 50 CONC 
 1
 1 INCONC
INTERNAL  1.000000e+00  (FREE)  -1  RECHARGE
 1.221000e+01 1.221000e+01 1.221000e+01 1.221000e+01
INTERNAL  1.000000e+00  (FREE)  -1  RECHARGE CONC
 1.000000e+00 1.000000e+00 1.000000e+00 1.000000e+00
