# Ghost-node file for MODFLOW-USG, generated by Flopy.
         0         0        24         1         0         0         0
10 41 9  0.333333333333 
10 43 11  0.333333333333 
11 44 10  0.333333333333 
11 46 12  0.333333333333 
12 47 11  0.333333333333 
12 49 13  0.333333333333 
16 41 9  0.333333333333 
16 59 20  0.333333333333 
17 49 13  0.333333333333 
17 67 21  0.333333333333 
20 68 16  0.333333333333 
20 86 24  0.333333333333 
21 76 17  0.333333333333 
21 94 25  0.333333333333 
24 95 20  0.333333333333 
24 113 28  0.333333333333 
25 103 21  0.333333333333 
25 121 32  0.333333333333 
29 113 28  0.333333333333 
29 115 30  0.333333333333 
30 116 29  0.333333333333 
30 118 31  0.333333333333 
31 119 30  0.333333333333 
31 121 32  0.333333333333 
