# Basic package file for MODFLOW-USG, generated by Flopy.
 FREE UNSTRUCTURED
        13         1             (5I10)         -1 IBOUND(K=1)
        -1         1         1         1         1
         1        -1        -1         1         1
         1         1         1        -1        -1
         1         1        -1        -1         1
         1        -1        -1         1         1
        -1        -1         1         1         1
         1         1        -1        -1         1
         1         1         1         1        -1
         1         1         1         1         1
         1         1         1         1         1
         1         1         1         1         1
         1         1         1         1         1
         1         1         1         1         1
         1         1         1         1         1
         1         1         1         1         1
         1         1         1         1         1
         1         1         1         1         1
         1         1         1         1         1
         1         1         1         1         1
         1         1         1         1         1
         1         1         1         1         1
         1         1         1         1         1
         1         1         1         1         1
         1         1         1         1         1
         1
-999.990000
        13         1           (5G13.0)         -1 STRT(K=1)
            1            0            0            0            0
            0            0            1            0            0
            0            0            0            0            1
            0            0            0            1            0
            0            0            1            0            0
            0            1            0            0            0
            0            0            0            1            0
            0            0            0            0            0
            0            0            0            0            0
            0            0            0            0            0
            0            0            0            0            0
            0            0            0            0            0
            0            0            0            0            0
            0            0            0            0            0
            0            0            0            0            0
            0            0            0            0            0
            0            0            0            0            0
            0            0            0            0            0
            0            0            0            0            0
            0            0            0            0            0
            0            0            0            0            0
            0            0            0            0            0
            0            0            0            0            0
            0            0            0            0            0
            0
