 LISTING FILE: SState.m3d
                         UNIT  16
# Transport package input files                                                                                                                                                                         

 OPENING SState.btn
 FILE TYPE:BTN   UNIT   1

 OPENING SState.adv
 FILE TYPE:ADV   UNIT   2

 OPENING SState.dsp
 FILE TYPE:DSP   UNIT   3

 OPENING SState.ssm
 FILE TYPE:SSM   UNIT   4

 OPENING SState.gcg
 FILE TYPE:GCG   UNIT   9
# Flow-Transport Link input file                                                                                                                                                                        

 OPENING SState.ftl
 FILE TYPE:FTL   UNIT  10

                              +++++++++++++++++++++++++++++++++++++++++++++++++++++++++++++++++++++++
                              +                                                                     +
                              +                               MT3DMS                                +
                              +             A Modular 3D Multi-Species Transport Model              +
                              +    For Simulation of Advection, Dispersion and Chemical Reactions   +
                              +                of Contaminants in Groundwater Systems               +
                              +                                                                     +
                              +++++++++++++++++++++++++++++++++++++++++++++++++++++++++++++++++++++++

  ----- 
 | M T | 3D TRANSPORT IN UNIFORM FLOW FIELD WITH CONTINUOUS POINT SOURCE                 
 | 3 D | A test problem for steady-state transport simulation                            
  ----- 
 THE TRANSPORT MODEL CONSISTS OF     8 LAYER(S)   15 ROW(S)   21 COLUMN(S)
 NUMBER OF STRESS PERIOD(S) FOR TRANSPORT SIMULATION =    1
 NUMBER OF ALL COMPONENTS INCLUDED IN SIMULATION =    1
 NUMBER OF MOBILE COMPONENTS INCLUDED IN SIMULATION =    1
 UNIT FOR TIME IS  DAY;  UNIT FOR LENGTH IS   FT;  UNIT FOR MASS IS   LB
 OPTIONAL PACKAGES INCLUDED IN CURRENT SIMULATION:
  o ADV   ON UNIT  2
  o DSP   ON UNIT  3
  o SSM   ON UNIT  4
  o GCG   ON UNIT  9

 BTN5 -- BASIC TRANSPORT PACKAGE, VERSION 5, FEBRUARY 2010, INPUT READ FROM UNIT  1
      38187 ELEMENTS OF THE  X ARRAY USED BY THE BTN PACKAGE
       2528 ELEMENTS OF THE IX ARRAY USED BY THE BTN PACKAGE

 FMI5 -- FLOW MODEL INTERFACE PACKAGE, VERSION 5, FEBRUARY 2010, INPUT READ FROM UNIT 10
 FLOW MODEL IS STEADY-STATE
 FLOW MODEL CONTAINS CONSTANT-HEAD CELLS

 ADV5 -- ADVECTION PACKAGE, VERSION 5, FEBRUARY 2010, INPUT READ FROM UNIT  2
 ADVECTION IS SOLVED WITH THE UPSTREAM FINITE DIFFERENCE SCHEME
 COURANT NUMBER ALLOWED IN SOLVING THE ADVECTION TERM =  1.00    
          0 ELEMENTS OF THE  X ARRAY USED BY THE ADV PACKAGE
          0 ELEMENTS OF THE IX ARRAY USED BY THE ADV PACKAGE

 DSP5 -- DISPERSION PACKAGE, VERSION 5, FEBRUARY 2010, INPUT READ FROM UNIT  3
      27736 ELEMENTS OF THE  X ARRAY USED BY THE DSP PACKAGE
          0 ELEMENTS OF THE IX ARRAY USED BY THE DSP PACKAGE

 SSM5 -- SINK & SOURCE MIXING PACKAGE, VERSION 5, FEBRUARY 2010, INPUT READ FROM UNIT  4
 HEADER LINE OF THE SSM PACKAGE INPUT FILE:
  T F F F F F      FWEL,FDRN,FRCH,FEVT,FRIV,FGHB                                                                                                                                                         
 MAJOR STRESS COMPONENTS PRESENT IN THE FLOW MODEL:
  o WELL [WEL]
 MAXIMUM NUMBER OF POINT SINKS/SOURCES =    1000
      13000 ELEMENTS OF THE  X ARRAY USED BY THE SSM PACKAGE
          0 ELEMENTS OF THE IX ARRAY BY THE SSM PACKAGE

 GCG5 -- GENERALIZED CONJUGATE GRADIENT SOLVER PACKAGE, VERSION 5, FEBRUARY 2010 INPUT READ FROM UNIT  9
 MAXIMUM OF    1 OUTER ITERATIONS
        AND  200 INNER ITERATIONS ALLOWED FOR CLOSURE
 THE PRECONDITIONING TYPE SELECTED IS MODIFIED INCOMPLETE CHOLESKY (MIC).
 DISPERSION CROSS TERMS LUMPED INTO RIGHT-HAND-SIDE
      55640 ELEMENTS OF THE  X ARRAY USED BY THE GCG PACKAGE
        600 ELEMENTS OF THE IX ARRAY USED BY THE GCG PACKAGE

 ..........................................
 ELEMENTS OF THE  X ARRAY USED =    134564
 ELEMENTS OF THE IX ARRAY USED =      3129
 ..........................................

 LAYER NUMBER  AQUIFER TYPE
 ------------  ------------
       1            0
       2            0
       3            0
       4            0
       5            0
       6            0
       7            0
       8            0
                                       WIDTH ALONG ROWS (DELR)  =   10.00000    
                                       WIDTH ALONG COLS (DELC)  =   10.00000    
                                       TOP ELEV. OF 1ST LAYER   =   80.00000    
                                       CELL THICKNESS (DZ)      =   10.00000     FOR LAYER  1
                                       CELL THICKNESS (DZ)      =   10.00000     FOR LAYER  2
                                       CELL THICKNESS (DZ)      =   10.00000     FOR LAYER  3
                                       CELL THICKNESS (DZ)      =   10.00000     FOR LAYER  4
                                       CELL THICKNESS (DZ)      =   10.00000     FOR LAYER  5
                                       CELL THICKNESS (DZ)      =   10.00000     FOR LAYER  6
                                       CELL THICKNESS (DZ)      =   10.00000     FOR LAYER  7
                                       CELL THICKNESS (DZ)      =   10.00000     FOR LAYER  8
                                       POROSITY                 =  0.2000000     FOR LAYER  1
                                       POROSITY                 =  0.2000000     FOR LAYER  2
                                       POROSITY                 =  0.2000000     FOR LAYER  3
                                       POROSITY                 =  0.2000000     FOR LAYER  4
                                       POROSITY                 =  0.2000000     FOR LAYER  5
                                       POROSITY                 =  0.2000000     FOR LAYER  6
                                       POROSITY                 =  0.2000000     FOR LAYER  7
                                       POROSITY                 =  0.2000000     FOR LAYER  8
                                       CONCN. BOUNDARY ARRAY    =              1 FOR LAYER  1
                                       CONCN. BOUNDARY ARRAY    =              1 FOR LAYER  2
                                       CONCN. BOUNDARY ARRAY    =              1 FOR LAYER  3
                                       CONCN. BOUNDARY ARRAY    =              1 FOR LAYER  4
                                       CONCN. BOUNDARY ARRAY    =              1 FOR LAYER  5
                                       CONCN. BOUNDARY ARRAY    =              1 FOR LAYER  6
                                       CONCN. BOUNDARY ARRAY    =              1 FOR LAYER  7
                                       CONCN. BOUNDARY ARRAY    =              1 FOR LAYER  8
                                       INITIAL CONC.: COMP.  01 =   0.000000     FOR LAYER  1
                                       INITIAL CONC.: COMP.  01 =   0.000000     FOR LAYER  2
                                       INITIAL CONC.: COMP.  01 =   0.000000     FOR LAYER  3
                                       INITIAL CONC.: COMP.  01 =   0.000000     FOR LAYER  4
                                       INITIAL CONC.: COMP.  01 =   0.000000     FOR LAYER  5
                                       INITIAL CONC.: COMP.  01 =   0.000000     FOR LAYER  6
                                       INITIAL CONC.: COMP.  01 =   0.000000     FOR LAYER  7
                                       INITIAL CONC.: COMP.  01 =   0.000000     FOR LAYER  8

 VALUE INDICATING INACTIVE CONCENTRATION CELLS =    999.9900    
 MINIMUM SATURATED THICKNESS [THKMIN] ALLOWED =  0.0000 OF TOTAL CELL THICKNESS


 OUTPUT CONTROL OPTIONS
 ----------------------

 PRINT CELL CONCENTRATION USING FORMAT CODE:    1
 PRINT PARTICLE NUMBER IN EACH CELL USING FORMAT CODE:    2
 PRINT RETARDATION FACTOR USING FORMAT CODE:    0
 DO NOT PRINT DISPERSION COEFFICIENT
 SAVE DISSOLVED PHASE CONCENTRATIONS IN UNFORMATTED FILES [MT3Dnnn.UCN]
  FOR EACH SPECIES ON UNITS 201 AND ABOVE

 NUMBER OF TIMES AT WHICH SIMULATION RESULTS ARE SAVED =    0

 NUMBER OF OBSERVATION POINTS =    4
 SAVE CONCENTRATIONS AT OBSERVATION POINTS IN FILES [MT3Dnnn.OBS]
  FOR EACH SPECIES ON UNITS 401 AND ABOVE, EVERY  1 TRANSPORT STEPS
 LOCATION OF OBSERVATION POINTS
 ..............................
 NUMBER  LAYER   ROW   COLUMN
   1        7      8      3
   2        5      8      5
   3        5      9      5
   4        5     10      5

 SAVE ONE-LINE SUMMARY OF MASS BUDGETS IN FILES [MT3Dnnn.MAS]
  FOR EACH SPECIES ON UNITS 601 AND ABOVE, EVERY  1 TRANSPORT STEPS

 MAXIMUM LENGTH ALONG THE X (J) AXIS =   210.0000    
 MAXIMUM LENGTH ALONG THE Y (I) AXIS =   150.0000    
 MAXIMUM LENGTH ALONG THE Z (K) AXIS =   80.00000    


 ADVECTION SOLUTION OPTIONS
 --------------------------

 ADVECTION IS SOLVED WITH THE UPSTREAM FINITE DIFFERENCE SCHEME
 COURANT NUMBER ALLOWED IN SOLVING THE ADVECTION TERM =  1.00    


 DISPERSION INPUT PARAMETERS
 ---------------------------

                                       LONG. DISPERSIVITY (AL)  =   10.00000     FOR LAYER  1
                                       LONG. DISPERSIVITY (AL)  =   10.00000     FOR LAYER  2
                                       LONG. DISPERSIVITY (AL)  =   10.00000     FOR LAYER  3
                                       LONG. DISPERSIVITY (AL)  =   10.00000     FOR LAYER  4
                                       LONG. DISPERSIVITY (AL)  =   10.00000     FOR LAYER  5
                                       LONG. DISPERSIVITY (AL)  =   10.00000     FOR LAYER  6
                                       LONG. DISPERSIVITY (AL)  =   10.00000     FOR LAYER  7
                                       LONG. DISPERSIVITY (AL)  =   10.00000     FOR LAYER  8
                                       H. TRANS./LONG. DISP.    =  0.3000000    
                                       V. TRANS./LONG. DISP.    =  0.3000000    
                                       DIFFUSION COEFFICIENT    =   0.000000    



                                               SOLUTION BY THE GENERALIZED CONJUGATE GRADIENT METHOD
                                               -----------------------------------------------------
                                     MAXIMUM OUTER ITERATIONS ALLOWED FOR CLOSURE =        1
                                     MAXIMUM INNER ITERATIONS ALLOWED FOR CLOSURE =      200
                                                    PRECONDITIONING TYPE SELECTED =    3
                                                           ACCELERATION PARAMETER =     1.0000    
                                       CONCENTRATION CHANGE CRITERION FOR CLOSURE =    0.10000E-05
                                       GCG CONCENTRATION CHANGE PRINTOUT INTERVAL =      999


                                   ++++++++++++++++++++++++++++++++++++++++++++++++++++++++++++++
                                                       STRESS PERIOD NO.  001
                                   ++++++++++++++++++++++++++++++++++++++++++++++++++++++++++++++


 LENGTH OF CURRENT STRESS PERIOD =   1.000000    
 NUMBER OF TIME STEPS FOR CURRENT STRESS PERIOD =    1
 TIME STEP MULTIPLIER USED IN FLOW SOLUTION =   1.000000    

 ***Type of Transport Simulation is STEADY-STATE

 USER-SPECIFIED TRANSPORT STEPSIZE =   0.000000     DAY
 MAXIMUM NUMBER OF TRANSPORT STEPS ALLOWED  IN ONE FLOW TIME STEP =     10000
 MULTIPLIER FOR SUCCESSIVE TRANSPORT STEPS  [USED IN IMPLICIT SCHEMES] =     1.000
 MAXIMUM TRANSPORT STEP SIZE  [USED IN IMPLICIT SCHEMES] =   3.500000     DAY

       NO    LAYER   ROW   COLUMN   CONCENTRATION       TYPE            COMPONENT
       1       7       8       3       100.0000         WELL                1


                                          ================================================
                                                         TIME STEP NO.  001
                                          ================================================

 FROM TIME =   0.0000     TO    1.0000    


                    "THKSAT          " FLOW TERMS FOR TIME STEP  1, STRESS PERIOD  1 READ UNFORMATTED ON UNIT 10
                    --------------------------------------------------------------------------------------------

                    "QXX             " FLOW TERMS FOR TIME STEP  1, STRESS PERIOD  1 READ UNFORMATTED ON UNIT 10
                    --------------------------------------------------------------------------------------------

                    "QYY             " FLOW TERMS FOR TIME STEP  1, STRESS PERIOD  1 READ UNFORMATTED ON UNIT 10
                    --------------------------------------------------------------------------------------------

                    "QZZ             " FLOW TERMS FOR TIME STEP  1, STRESS PERIOD  1 READ UNFORMATTED ON UNIT 10
                    --------------------------------------------------------------------------------------------

 MAXIMUM STEPSIZE DURING WHICH ANY PARTICLE CANNOT MOVE MORE THAN ONE CELL
 =  19.90    (WHEN MIN. R.F.=1)  AT K=   7, I=   8, J=   4

 MAXIMUM STEPSIZE WHICH MEETS STABILITY CRITERION OF THE ADVECTION TERM
 (FOR PURE FINITE-DIFFERENCE OPTION, MIXELM=0) 
 =  19.51    (WHEN MIN. R.F.=1)  AT K=   7, I=   8, J=   3

                    "CNH             " FLOW TERMS FOR TIME STEP  1, STRESS PERIOD  1 READ UNFORMATTED ON UNIT 10
                    --------------------------------------------------------------------------------------------

                    "WEL             " FLOW TERMS FOR TIME STEP  1, STRESS PERIOD  1 READ UNFORMATTED ON UNIT 10
                    --------------------------------------------------------------------------------------------


 TOTAL NUMBER OF POINT SOURCES/SINKS PRESENT IN THE FLOW MODEL =   241

 MAXIMUM STEPSIZE WHICH MEETS STABILITY CRITERION OF THE SINK & SOURCE TERM
 =  20.00    (WHEN MIN. R.F.=1)  AT K=   1, I=  15, J=   1

 MAXIMUM STEPSIZE WHICH MEETS STABILITY CRITERION OF THE DISPERSION TERM
 =  6.219    (WHEN MIN. R.F.=1)  AT K=   7, I=   8, J=   3


     1 CALLS TO GCG PACKAGE FOR TRANSPORT TIME STEP   1 IN FLOW TIME STEP   1 STRESS PERIOD   1
    17 TOTAL ITERATIONS
  MAXIMUM CONCENTRATION CHANGES FOR EACH ITERATION:
  MAX. CHANGE LAYER,ROW,COL MAX. CHANGE LAYER,ROW,COL MAX. CHANGE LAYER,ROW,COL MAX. CHANGE LAYER,ROW,COL MAX. CHANGE LAYER,ROW,COL
 ------------------------------------------------------------------------------------------------------------------------------------
    1.503     (  7,  8,  3)  0.3060     (  7,  8,  3)  0.2849     (  6,  9, 13)  0.1628     (  6, 10, 16)  0.4762E-01 (  4, 10, 21)
   0.6514E-02 (  4, 11, 21)  0.1419E-01 (  8,  4, 21)  0.1314E-02 (  8,  4, 21)  0.4654E-04 (  3, 12, 21)  0.1304E-02 (  3, 12, 21)
   0.3180E-03 (  4, 12, 21)  0.5310E-04 (  4, 11, 21)  0.2586E-04 (  3, 14, 21)  0.8725E-05 (  5,  8, 21)  0.3859E-05 (  5,  8, 21)
   0.1028E-05 (  8,  2, 21)  0.1416E-06 (  5,  6, 21)



 >>>>>>>>>>>>>>>>>>>>>>>>>>>>>>>>>>>>>>>>>>>>>>>>>>>>>>>FOR COMPONENT NO. 01<<<<<<<<<<<<<<<<<<<<<<<<<<<<<<<<<<<<<<<<<<<<<<<<<<<<<<<


                                            -------------------------------------------
                                                      TRANSPORT STEP NO.    1
                                            -------------------------------------------

 TOTAL ELAPSED TIME SINCE BEGINNING OF SIMULATION =   1.000000     DAY
 .....................................................................

                     CONCENTRATIONS   IN LAYER  1 AT END OF TRANSPORT STEP    1, TIME STEP  1, STRESS PERIOD  1
                     ------------------------------------------------------------------------------------------

           1          2          3          4          5          6          7          8          9         10         11
          12         13         14         15         16         17         18         19         20         21
 ..............................................................................................................................
   1   3.766E-05  6.641E-05  1.084E-04  1.672E-04  2.471E-04  3.522E-04  4.869E-04  6.554E-04  8.613E-04  1.108E-03  1.398E-03
       1.732E-03  2.112E-03  2.537E-03  3.002E-03  3.504E-03  4.029E-03  4.559E-03  5.056E-03  5.450E-03  5.609E-03
   2   5.407E-05  9.511E-05  1.545E-04  2.370E-04  3.475E-04  4.912E-04  6.727E-04  8.961E-04  1.165E-03  1.481E-03  1.847E-03
       2.262E-03  2.726E-03  3.235E-03  3.786E-03  4.371E-03  4.977E-03  5.582E-03  6.143E-03  6.586E-03  6.765E-03
   3   9.113E-05  1.598E-04  2.580E-04  3.927E-04  5.706E-04  7.976E-04  1.079E-03  1.418E-03  1.816E-03  2.275E-03  2.793E-03
       3.368E-03  3.995E-03  4.668E-03  5.380E-03  6.121E-03  6.874E-03  7.613E-03  8.291E-03  8.820E-03  9.034E-03
   4   1.560E-04  2.725E-04  4.376E-04  6.610E-04  9.511E-04  1.315E-03  1.756E-03  2.276E-03  2.874E-03  3.547E-03  4.288E-03
       5.089E-03  5.943E-03  6.838E-03  7.764E-03  8.707E-03  9.646E-03  1.055E-02  1.137E-02  1.201E-02  1.226E-02
   5   2.543E-04  4.429E-04  7.072E-04  1.060E-03  1.511E-03  2.065E-03  2.724E-03  3.484E-03  4.337E-03  5.275E-03  6.283E-03
       7.350E-03  8.459E-03  9.598E-03  1.075E-02  1.190E-02  1.302E-02  1.409E-02  1.505E-02  1.578E-02  1.607E-02
   6   3.803E-04  6.603E-04  1.049E-03  1.560E-03  2.203E-03  2.979E-03  3.883E-03  4.904E-03  6.026E-03  7.232E-03  8.502E-03
       9.817E-03  1.116E-02  1.251E-02  1.385E-02  1.517E-02  1.644E-02  1.762E-02  1.867E-02  1.947E-02  1.979E-02
   7   5.018E-04  8.693E-04  1.375E-03  2.033E-03  2.848E-03  3.816E-03  4.926E-03  6.157E-03  7.488E-03  8.894E-03  1.035E-02
       1.184E-02  1.334E-02  1.482E-02  1.628E-02  1.770E-02  1.904E-02  2.030E-02  2.140E-02  2.223E-02  2.256E-02
   8   5.578E-04  9.653E-04  1.524E-03  2.246E-03  3.135E-03  4.183E-03  5.373E-03  6.685E-03  8.094E-03  9.572E-03  1.110E-02
       1.264E-02  1.419E-02  1.572E-02  1.721E-02  1.866E-02  2.003E-02  2.130E-02  2.241E-02  2.325E-02  2.359E-02
   9   5.018E-04  8.693E-04  1.375E-03  2.033E-03  2.848E-03  3.816E-03  4.926E-03  6.157E-03  7.488E-03  8.894E-03  1.035E-02
       1.184E-02  1.334E-02  1.482E-02  1.628E-02  1.770E-02  1.904E-02  2.030E-02  2.140E-02  2.223E-02  2.256E-02
  10   3.803E-04  6.603E-04  1.049E-03  1.560E-03  2.203E-03  2.979E-03  3.883E-03  4.904E-03  6.026E-03  7.232E-03  8.502E-03
       9.817E-03  1.116E-02  1.251E-02  1.385E-02  1.517E-02  1.644E-02  1.762E-02  1.867E-02  1.947E-02  1.979E-02
  11   2.543E-04  4.429E-04  7.072E-04  1.060E-03  1.511E-03  2.065E-03  2.724E-03  3.484E-03  4.337E-03  5.275E-03  6.283E-03
       7.350E-03  8.459E-03  9.598E-03  1.075E-02  1.190E-02  1.302E-02  1.409E-02  1.505E-02  1.578E-02  1.607E-02
  12   1.560E-04  2.725E-04  4.376E-04  6.610E-04  9.511E-04  1.315E-03  1.756E-03  2.276E-03  2.874E-03  3.547E-03  4.288E-03
       5.089E-03  5.943E-03  6.838E-03  7.764E-03  8.707E-03  9.646E-03  1.055E-02  1.137E-02  1.201E-02  1.226E-02
  13   9.113E-05  1.598E-04  2.580E-04  3.927E-04  5.706E-04  7.976E-04  1.079E-03  1.418E-03  1.816E-03  2.275E-03  2.793E-03
       3.368E-03  3.995E-03  4.668E-03  5.380E-03  6.121E-03  6.874E-03  7.613E-03  8.291E-03  8.820E-03  9.034E-03
  14   5.407E-05  9.511E-05  1.545E-04  2.370E-04  3.475E-04  4.912E-04  6.727E-04  8.961E-04  1.165E-03  1.481E-03  1.847E-03
       2.262E-03  2.726E-03  3.235E-03  3.786E-03  4.371E-03  4.977E-03  5.582E-03  6.143E-03  6.586E-03  6.765E-03
  15   3.766E-05  6.641E-05  1.084E-04  1.672E-04  2.471E-04  3.522E-04  4.869E-04  6.554E-04  8.613E-04  1.108E-03  1.398E-03
       1.732E-03  2.112E-03  2.537E-03  3.002E-03  3.504E-03  4.029E-03  4.559E-03  5.056E-03  5.450E-03  5.609E-03

                     CONCENTRATIONS   IN LAYER  2 AT END OF TRANSPORT STEP    1, TIME STEP  1, STRESS PERIOD  1
                     ------------------------------------------------------------------------------------------

           1          2          3          4          5          6          7          8          9         10         11
          12         13         14         15         16         17         18         19         20         21
 ..............................................................................................................................
   1   5.092E-05  8.961E-05  1.457E-04  2.237E-04  3.285E-04  4.650E-04  6.378E-04  8.512E-04  1.109E-03  1.413E-03  1.766E-03
       2.167E-03  2.617E-03  3.114E-03  3.652E-03  4.225E-03  4.820E-03  5.415E-03  5.969E-03  6.405E-03  6.582E-03
   2   7.687E-05  1.348E-04  2.180E-04  3.322E-04  4.833E-04  6.769E-04  9.174E-04  1.209E-03  1.553E-03  1.951E-03  2.404E-03
       2.908E-03  3.463E-03  4.062E-03  4.701E-03  5.370E-03  6.054E-03  6.729E-03  7.352E-03  7.840E-03  8.036E-03
   3   1.383E-04  2.416E-04  3.879E-04  5.855E-04  8.419E-04  1.163E-03  1.552E-03  2.011E-03  2.538E-03  3.131E-03  3.784E-03
       4.493E-03  5.249E-03  6.044E-03  6.869E-03  7.712E-03  8.555E-03  9.372E-03  1.011E-02  1.069E-02  1.092E-02
   4   2.539E-04  4.417E-04  7.039E-04  1.052E-03  1.494E-03  2.035E-03  2.672E-03  3.402E-03  4.216E-03  5.104E-03  6.052E-03
       7.048E-03  8.079E-03  9.132E-03  1.019E-02  1.125E-02  1.228E-02  1.326E-02  1.413E-02  1.480E-02  1.507E-02
   5   4.457E-04  7.722E-04  1.222E-03  1.807E-03  2.535E-03  3.399E-03  4.391E-03  5.491E-03  6.679E-03  7.932E-03  9.230E-03
       1.055E-02  1.188E-02  1.319E-02  1.449E-02  1.574E-02  1.693E-02  1.804E-02  1.901E-02  1.975E-02  2.004E-02
   6   7.188E-04  1.241E-03  1.949E-03  2.854E-03  3.950E-03  5.216E-03  6.623E-03  8.135E-03  9.716E-03  1.133E-02  1.295E-02
       1.456E-02  1.612E-02  1.764E-02  1.908E-02  2.045E-02  2.174E-02  2.290E-02  2.392E-02  2.467E-02  2.497E-02
   7   1.015E-03  1.747E-03  2.728E-03  3.959E-03  5.412E-03  7.047E-03  8.811E-03  1.065E-02  1.253E-02  1.439E-02  1.622E-02
       1.799E-02  1.968E-02  2.128E-02  2.279E-02  2.419E-02  2.549E-02  2.665E-02  2.765E-02  2.839E-02  2.869E-02
   8   1.171E-03  2.013E-03  3.135E-03  4.524E-03  6.141E-03  7.931E-03  9.834E-03  1.179E-02  1.376E-02  1.571E-02  1.759E-02
       1.940E-02  2.111E-02  2.273E-02  2.424E-02  2.564E-02  2.692E-02  2.808E-02  2.906E-02  2.979E-02  3.008E-02
   9   1.015E-03  1.747E-03  2.728E-03  3.959E-03  5.412E-03  7.047E-03  8.811E-03  1.065E-02  1.253E-02  1.439E-02  1.622E-02
       1.799E-02  1.968E-02  2.128E-02  2.279E-02  2.419E-02  2.549E-02  2.665E-02  2.765E-02  2.839E-02  2.869E-02
  10   7.188E-04  1.241E-03  1.949E-03  2.854E-03  3.950E-03  5.216E-03  6.623E-03  8.135E-03  9.716E-03  1.133E-02  1.295E-02
       1.456E-02  1.612E-02  1.764E-02  1.908E-02  2.045E-02  2.174E-02  2.290E-02  2.392E-02  2.467E-02  2.497E-02
  11   4.457E-04  7.722E-04  1.222E-03  1.807E-03  2.535E-03  3.399E-03  4.391E-03  5.491E-03  6.679E-03  7.932E-03  9.230E-03
       1.055E-02  1.188E-02  1.319E-02  1.449E-02  1.574E-02  1.693E-02  1.804E-02  1.901E-02  1.975E-02  2.004E-02
  12   2.539E-04  4.417E-04  7.039E-04  1.052E-03  1.494E-03  2.035E-03  2.672E-03  3.402E-03  4.216E-03  5.104E-03  6.052E-03
       7.048E-03  8.079E-03  9.132E-03  1.019E-02  1.125E-02  1.228E-02  1.326E-02  1.413E-02  1.480E-02  1.507E-02
  13   1.383E-04  2.416E-04  3.879E-04  5.855E-04  8.419E-04  1.163E-03  1.552E-03  2.011E-03  2.538E-03  3.131E-03  3.784E-03
       4.493E-03  5.249E-03  6.044E-03  6.869E-03  7.712E-03  8.555E-03  9.372E-03  1.011E-02  1.069E-02  1.092E-02
  14   7.687E-05  1.348E-04  2.179E-04  3.322E-04  4.833E-04  6.769E-04  9.174E-04  1.209E-03  1.553E-03  1.951E-03  2.404E-03
       2.908E-03  3.463E-03  4.062E-03  4.701E-03  5.370E-03  6.054E-03  6.729E-03  7.352E-03  7.840E-03  8.036E-03
  15   5.092E-05  8.961E-05  1.457E-04  2.237E-04  3.285E-04  4.650E-04  6.378E-04  8.512E-04  1.109E-03  1.413E-03  1.766E-03
       2.167E-03  2.617E-03  3.114E-03  3.652E-03  4.225E-03  4.820E-03  5.415E-03  5.969E-03  6.405E-03  6.582E-03

                     CONCENTRATIONS   IN LAYER  3 AT END OF TRANSPORT STEP    1, TIME STEP  1, STRESS PERIOD  1
                     ------------------------------------------------------------------------------------------

           1          2          3          4          5          6          7          8          9         10         11
          12         13         14         15         16         17         18         19         20         21
 ..............................................................................................................................
   1   7.901E-05  1.387E-04  2.243E-04  3.423E-04  4.987E-04  6.996E-04  9.499E-04  1.254E-03  1.614E-03  2.032E-03  2.507E-03
       3.038E-03  3.623E-03  4.256E-03  4.931E-03  5.638E-03  6.361E-03  7.075E-03  7.734E-03  8.249E-03  8.457E-03
   2   1.272E-04  2.223E-04  3.572E-04  5.400E-04  7.778E-04  1.077E-03  1.440E-03  1.871E-03  2.368E-03  2.929E-03  3.551E-03
       4.229E-03  4.956E-03  5.724E-03  6.526E-03  7.348E-03  8.174E-03  8.977E-03  9.708E-03  1.028E-02  1.050E-02
   3   2.481E-04  4.316E-04  6.876E-04  1.027E-03  1.459E-03  1.985E-03  2.605E-03  3.315E-03  4.105E-03  4.966E-03  5.885E-03
       6.849E-03  7.847E-03  8.865E-03  9.892E-03  1.091E-02  1.191E-02  1.286E-02  1.370E-02  1.435E-02  1.461E-02
   4   4.958E-04  8.582E-04  1.356E-03  2.001E-03  2.797E-03  3.738E-03  4.808E-03  5.985E-03  7.244E-03  8.559E-03  9.906E-03
       1.126E-02  1.261E-02  1.393E-02  1.522E-02  1.645E-02  1.762E-02  1.869E-02  1.963E-02  2.034E-02  2.062E-02
   5   9.531E-04  1.642E-03  2.570E-03  3.744E-03  5.148E-03  6.744E-03  8.483E-03  1.031E-02  1.219E-02  1.405E-02  1.588E-02
       1.764E-02  1.931E-02  2.088E-02  2.235E-02  2.370E-02  2.494E-02  2.604E-02  2.698E-02  2.768E-02  2.795E-02
   6   1.691E-03  2.900E-03  4.501E-03  6.468E-03  8.730E-03  1.119E-02  1.374E-02  1.630E-02  1.878E-02  2.114E-02  2.333E-02
       2.534E-02  2.717E-02  2.882E-02  3.029E-02  3.159E-02  3.274E-02  3.373E-02  3.455E-02  3.514E-02  3.537E-02
   7   2.614E-03  4.474E-03  6.895E-03  9.777E-03  1.295E-02  1.624E-02  1.948E-02  2.256E-02  2.541E-02  2.799E-02  3.029E-02
       3.231E-02  3.407E-02  3.560E-02  3.691E-02  3.803E-02  3.898E-02  3.977E-02  4.041E-02  4.087E-02  4.104E-02
   8   3.192E-03  5.465E-03  8.401E-03  1.180E-02  1.542E-02  1.903E-02  2.249E-02  2.568E-02  2.857E-02  3.113E-02  3.336E-02
       3.530E-02  3.696E-02  3.837E-02  3.956E-02  4.057E-02  4.141E-02  4.211E-02  4.265E-02  4.304E-02  4.319E-02
   9   2.614E-03  4.474E-03  6.895E-03  9.777E-03  1.295E-02  1.624E-02  1.948E-02  2.256E-02  2.541E-02  2.799E-02  3.029E-02
       3.231E-02  3.407E-02  3.560E-02  3.691E-02  3.803E-02  3.898E-02  3.977E-02  4.041E-02  4.087E-02  4.104E-02
  10   1.691E-03  2.900E-03  4.501E-03  6.468E-03  8.730E-03  1.119E-02  1.374E-02  1.630E-02  1.878E-02  2.114E-02  2.333E-02
       2.534E-02  2.717E-02  2.882E-02  3.029E-02  3.159E-02  3.274E-02  3.373E-02  3.455E-02  3.514E-02  3.537E-02
  11   9.531E-04  1.642E-03  2.570E-03  3.744E-03  5.148E-03  6.744E-03  8.483E-03  1.031E-02  1.219E-02  1.405E-02  1.588E-02
       1.764E-02  1.931E-02  2.088E-02  2.235E-02  2.370E-02  2.494E-02  2.604E-02  2.698E-02  2.768E-02  2.795E-02
  12   4.958E-04  8.582E-04  1.356E-03  2.001E-03  2.797E-03  3.738E-03  4.808E-03  5.985E-03  7.244E-03  8.559E-03  9.906E-03
       1.126E-02  1.261E-02  1.393E-02  1.522E-02  1.645E-02  1.762E-02  1.869E-02  1.963E-02  2.034E-02  2.062E-02
  13   2.481E-04  4.316E-04  6.876E-04  1.027E-03  1.459E-03  1.985E-03  2.605E-03  3.315E-03  4.106E-03  4.966E-03  5.885E-03
       6.849E-03  7.847E-03  8.865E-03  9.892E-03  1.091E-02  1.191E-02  1.286E-02  1.370E-02  1.435E-02  1.461E-02
  14   1.272E-04  2.223E-04  3.572E-04  5.400E-04  7.778E-04  1.077E-03  1.440E-03  1.871E-03  2.368E-03  2.929E-03  3.551E-03
       4.229E-03  4.956E-03  5.724E-03  6.526E-03  7.348E-03  8.174E-03  8.977E-03  9.708E-03  1.028E-02  1.050E-02
  15   7.901E-05  1.387E-04  2.243E-04  3.423E-04  4.987E-04  6.996E-04  9.499E-04  1.254E-03  1.614E-03  2.032E-03  2.507E-03
       3.038E-03  3.623E-03  4.256E-03  4.931E-03  5.638E-03  6.361E-03  7.075E-03  7.734E-03  8.249E-03  8.457E-03

                     CONCENTRATIONS   IN LAYER  4 AT END OF TRANSPORT STEP    1, TIME STEP  1, STRESS PERIOD  1
                     ------------------------------------------------------------------------------------------

           1          2          3          4          5          6          7          8          9         10         11
          12         13         14         15         16         17         18         19         20         21
 ..............................................................................................................................
   1   1.235E-04  2.161E-04  3.481E-04  5.279E-04  7.635E-04  1.062E-03  1.428E-03  1.865E-03  2.374E-03  2.954E-03  3.602E-03
       4.314E-03  5.082E-03  5.900E-03  6.757E-03  7.641E-03  8.533E-03  9.401E-03  1.019E-02  1.081E-02  1.106E-02
   2   2.117E-04  3.688E-04  5.891E-04  8.834E-04  1.260E-03  1.724E-03  2.277E-03  2.917E-03  3.639E-03  4.436E-03  5.297E-03
       6.214E-03  7.174E-03  8.167E-03  9.180E-03  1.020E-02  1.120E-02  1.216E-02  1.303E-02  1.369E-02  1.396E-02