# File generated by Flopy version 3.5.0.dev0 on 02/20/2024 at 08:30:12.
BEGIN griddata
  strt
    CONSTANT       0.00000000
END griddata

