# File generated by Flopy version 3.5.0.dev0 on 02/20/2024 at 08:30:12.
BEGIN options
  VERTICAL_OFFSET_TOLERANCE       0.00000000
END options

BEGIN dimensions
  NODES  27
  NJA  135
END dimensions

BEGIN griddata
  top
    INTERNAL  FACTOR  1.0
         0.00000000       0.00000000       0.00000000       0.00000000       0.00000000       0.00000000       0.00000000       0.00000000       0.00000000     -10.00000000     -10.00000000     -10.00000000     -10.00000000     -10.00000000     -10.00000000     -10.00000000     -10.00000000     -10.00000000     -20.00000000     -20.00000000
       -20.00000000     -20.00000000     -20.00000000     -20.00000000     -20.00000000     -20.00000000     -20.00000000
  bot
    INTERNAL  FACTOR  1.0
       -10.00000000     -10.00000000     -10.00000000     -10.00000000     -10.00000000     -10.00000000     -10.00000000     -10.00000000     -10.00000000     -20.00000000     -20.00000000     -20.00000000     -20.00000000     -20.00000000     -20.00000000     -20.00000000     -20.00000000     -20.00000000     -30.00000000     -30.00000000
       -30.00000000     -30.00000000     -30.00000000     -30.00000000     -30.00000000     -30.00000000     -30.00000000
  area
    INTERNAL  FACTOR  1.0
       100.00000000     100.00000000     100.00000000     100.00000000     100.00000000     100.00000000     100.00000000     100.00000000     100.00000000     100.00000000     100.00000000     100.00000000     100.00000000     100.00000000     100.00000000     100.00000000     100.00000000     100.00000000     100.00000000     100.00000000
       100.00000000     100.00000000     100.00000000     100.00000000     100.00000000     100.00000000     100.00000000
END griddata

BEGIN connectiondata
  iac
    INTERNAL  FACTOR  1
    4  5  4  5  6  5  4  5  4  5  6  5  6  7  6  5  6  5  4  5
    4  5  6  5  4  5  4
  ja
    INTERNAL  FACTOR  1
    1  2  4  10
    2  1  3  5  11
    3  2  6  12
    4  1  5  7  13
    5  2  4  6  8  14
    6  3  5  9  15
    7  4  8  16
    8  5  7  9  17
    9  6  8  18
    10  1  11  13  19
    11  2  10  12  14  20
    12  3  11  15  21
    13  4  10  14  16  22
    14  5  11  13  15  17  23
    15  6  12  14  18  24
    16  7  13  17  25
    17  8  14  16  18  26
    18  9  15  17  27
    19  10  20  22
    20  11  19  21  23
    21  12  20  24
    22  13  19  23  25
    23  14  20  22  24  26
    24  15  21  23  27
    25  16  22  26
    26  17  23  25  27
    27  18  24  26
  ihc
    INTERNAL  FACTOR  1
    1  1  1  0
    2  1  1  1  0
    3  1  1  0
    4  1  1  1  0
    5  1  1  1  1  0
    6  1  1  1  0
    7  1  1  0
    8  1  1  1  0
    9  1  1  0
    10  0  1  1  0
    11  0  1  1  1  0
    12  0  1  1  0
    13  0  1  1  1  0
    14  0  1  1  1  1  0
    15  0  1  1  1  0
    16  0  1  1  0
    17  0  1  1  1  0
    18  0  1  1  0
    19  0  1  1
    20  0  1  1  1
    21  0  1  1
    22  0  1  1  1
    23  0  1  1  1  1
    24  0  1  1  1
    25  0  1  1
    26  0  1  1  1
    27  0  1  1
  cl12
    INTERNAL  FACTOR  1.0
         1.00000000       5.00000000       5.00000000       5.00000000
         2.00000000       5.00000000       5.00000000       5.00000000       5.00000000
         3.00000000       5.00000000       5.00000000       5.00000000
         4.00000000       5.00000000       5.00000000       5.00000000       5.00000000
         5.00000000       5.00000000       5.00000000       5.00000000       5.00000000       5.00000000
         6.00000000       5.00000000       5.00000000       5.00000000       5.00000000
         7.00000000       5.00000000       5.00000000       5.00000000
         8.00000000       5.00000000       5.00000000       5.00000000       5.00000000
         9.00000000       5.00000000       5.00000000       5.00000000
        10.00000000       5.00000000       5.00000000       5.00000000       5.00000000
        11.00000000       5.00000000       5.00000000       5.00000000       5.00000000       5.00000000
        12.00000000       5.00000000       5.00000000       5.00000000       5.00000000
        13.00000000       5.00000000       5.00000000       5.00000000       5.00000000       5.00000000
        14.00000000       5.00000000       5.00000000       5.00000000       5.00000000       5.00000000       5.00000000
        15.00000000       5.00000000       5.00000000       5.00000000       5.00000000       5.00000000
        16.00000000       5.00000000       5.00000000       5.00000000       5.00000000
        17.00000000       5.00000000       5.00000000       5.00000000       5.00000000       5.00000000
        18.00000000       5.00000000       5.00000000       5.00000000       5.00000000
        19.00000000       5.00000000       5.00000000       5.00000000
        20.00000000       5.00000000       5.00000000       5.00000000       5.00000000
        21.00000000       5.00000000       5.00000000       5.00000000
        22.00000000       5.00000000       5.00000000       5.00000000       5.00000000
        23.00000000       5.00000000       5.00000000       5.00000000       5.00000000       5.00000000
        24.00000000       5.00000000       5.00000000       5.00000000       5.00000000
        25.00000000       5.00000000       5.00000000       5.00000000
        26.00000000       5.00000000       5.00000000       5.00000000       5.00000000
        27.00000000       5.00000000       5.00000000       5.00000000
  hwva
    INTERNAL  FACTOR  1.0
         1.00000000      10.00000000      10.00000000     100.00000000
         2.00000000      10.00000000      10.00000000      10.00000000     100.00000000
         3.00000000      10.00000000      10.00000000     100.00000000
         4.00000000      10.00000000      10.00000000      10.00000000     100.00000000
         5.00000000      10.00000000      10.00000000      10.00000000      10.00000000     100.00000000
         6.00000000      10.00000000      10.00000000      10.00000000     100.00000000
         7.00000000      10.00000000      10.00000000     100.00000000
         8.00000000      10.00000000      10.00000000      10.00000000     100.00000000
         9.00000000      10.00000000      10.00000000     100.00000000
        10.00000000     100.00000000      10.00000000      10.00000000     100.00000000
        11.00000000     100.00000000      10.00000000      10.00000000      10.00000000     100.00000000
        12.00000000     100.00000000      10.00000000      10.00000000     100.00000000
        13.00000000     100.00000000      10.00000000      10.00000000      10.00000000     100.00000000
        14.00000000     100.00000000      10.00000000      10.00000000      10.00000000      10.00000000     100.00000000
        15.00000000     100.00000000      10.00000000      10.00000000      10.00000000     100.00000000
        16.00000000     100.00000000      10.00000000      10.00000000     100.00000000
        17.00000000     100.00000000      10.00000000      10.00000000      10.00000000     100.00000000
        18.00000000     100.00000000      10.00000000      10.00000000     100.00000000
        19.00000000     100.00000000      10.00000000      10.00000000
        20.00000000     100.00000000      10.00000000      10.00000000      10.00000000
        21.00000000     100.00000000      10.00000000      10.00000000
        22.00000000     100.00000000      10.00000000      10.00000000      10.00000000
        23.00000000     100.00000000      10.00000000      10.00000000      10.00000000      10.00000000
        24.00000000     100.00000000      10.00000000      10.00000000      10.00000000
        25.00000000     100.00000000      10.00000000      10.00000000
        26.00000000     100.00000000      10.00000000      10.00000000      10.00000000
        27.00000000     100.00000000      10.00000000      10.00000000
END connectiondata

