# File generated by Flopy version 3.5.0.dev0 on 02/20/2024 at 08:30:12.
BEGIN options
END options

BEGIN dimensions
  MAXBOUND  2
END dimensions

BEGIN period  1
  1 1.00000000E+00
  9 0.00000000E+00
END period  1

