BEGIN Options
  TIME_UNITS  days
END Options

BEGIN Dimensions
  NPER  1
END Dimensions

BEGIN PERIODDATA
  1.0  1  1.0  PERLEN NSTP TSMULT
END PERIODDATA

