BEGIN GRIDDATA
  strt  LAYERED
    CONSTANT  115.0
    CONSTANT  115.0
    CONSTANT  115.0
    CONSTANT  115.0
    CONSTANT  115.0
END GRIDDATA

