BEGIN dimensions
  NROW  151
  NCOL  3
END dimensions

BEGIN table
  97.0  0.0  2250000.0
  99.6867  6045000.0  2250000.0
  102.373  12090000.0  2250000.0
  105.06  18135000.0  2250000.0
  107.747  34926700.0  6250000.0
  110.433  51718300.0  6250000.0
  113.12  68510000.0  6250000.0
  115.807  85301700.0  6250000.0
  118.493  102093000.0  6250000.0
  121.18  118885000.0  6250000.0
  123.867  135677000.0  6250000.0
  126.553  152468000.0  6250000.0
  129.24  169260000.0  6250000.0
  131.927  186052000.0  6250000.0
  134.613  202843000.0  6250000.0
  137.3  219635000.0  6250000.0
  139.987  236427000.0  6250000.0
  142.673  253218000.0  6250000.0
  145.36  270010000.0  6250000.0
  148.047  286802000.0  6250000.0
  150.733  303593000.0  6250000.0
  153.42  320385000.0  6250000.0
  156.107  337177000.0  6250000.0
  158.793  353968000.0  6250000.0
  161.48  370760000.0  6250000.0
  164.167  387552000.0  6250000.0
  166.853  404343000.0  6250000.0
  169.54  421135000.0  6250000.0
  172.227  437927000.0  6250000.0
  174.913  454718000.0  6250000.0
  177.6  471510000.0  6250000.0
  180.287  488302000.0  6250000.0
  182.973  505093000.0  6250000.0
  185.66  521885000.0  6250000.0
  188.347  538677000.0  6250000.0
  191.033  555468000.0  6250000.0
  193.72  572260000.0  6250000.0
  196.407  589052000.0  6250000.0
  199.093  605843000.0  6250000.0
  201.78  622635000.0  6250000.0
  204.467  639427000.0  6250000.0
  207.153  656218000.0  6250000.0
  209.84  673010000.0  6250000.0
  212.527  689802000.0  6250000.0
  215.213  706593000.0  6250000.0
  217.9  723385000.0  6250000.0
  220.586  740177000.0  6250000.0
  223.273  756968000.0  6250000.0
  225.96  773760000.0  6250000.0
  228.646  790552000.0  6250000.0
  231.333  807343000.0  6250000.0
  234.02  824135000.0  6250000.0
  236.706  840927000.0  6250000.0
  239.393  857718000.0  6250000.0
  242.08  874510000.0  6250000.0
  244.766  891302000.0  6250000.0
  247.453  908093000.0  6250000.0
  250.14  924885000.0  6250000.0
  252.826  941677000.0  6250000.0
  255.513  958468000.0  6250000.0
  258.2  975260000.0  6250000.0
  260.886  992052000.0  6250000.0
  263.573  1008840000.0  6250000.0
  266.26  1025640000.0  6250000.0
  268.946  1042430000.0  6250000.0
  271.633  1059220000.0  6250000.0
  274.32  1076010000.0  6250000.0
  277.006  1092800000.0  6250000.0
  279.693  1109590000.0  6250000.0
  282.38  1126390000.0  6250000.0
  285.066  1143180000.0  6250000.0
  287.753  1159970000.0  6250000.0
  290.44  1176760000.0  6250000.0
  293.127  1193550000.0  6250000.0
  295.813  1210340000.0  6250000.0
  298.5  1227140000.0  6250000.0
  301.187  1243930000.0  6250000.0
  303.873  1260720000.0  6250000.0
  306.56  1277510000.0  6250000.0
  309.247  1294300000.0  6250000.0
  311.933  1311090000.0  6250000.0
  314.62  1327890000.0  6250000.0
  317.307  1344680000.0  6250000.0
  319.993  1361470000.0  6250000.0
  322.68  1378260000.0  6250000.0
  325.367  1395050000.0  6250000.0
  328.053  1411840000.0  6250000.0
  330.74  1428640000.0  6250000.0
  333.427  1445430000.0  6250000.0
  336.113  1462220000.0  6250000.0
  338.8  1479010000.0  6250000.0
  341.487  1495800000.0  6250000.0
  344.173  1512590000.0  6250000.0
  346.86  1529390000.0  6250000.0
  349.547  1546180000.0  6250000.0
  352.233  1562970000.0  6250000.0
  354.92  1579760000.0  6250000.0
  357.607  1596550000.0  6250000.0
  360.293  1613340000.0  6250000.0
  362.98  1630140000.0  6250000.0
  365.667  1646930000.0  6250000.0
  368.353  1663720000.0  6250000.0
  371.04  1680510000.0  6250000.0
  373.727  1697300000.0  6250000.0
  376.413  1714090000.0  6250000.0
  379.1  1730890000.0  6250000.0
  381.787  1747680000.0  6250000.0
  384.474  1764470000.0  6250000.0
  387.16  1781260000.0  6250000.0
  389.847  1798050000.0  6250000.0
  392.534  1814840000.0  6250000.0
  395.22  1831640000.0  6250000.0
  397.907  1848430000.0  6250000.0
  400.594  1865220000.0  6250000.0
  403.28  1882010000.0  6250000.0
  405.967  1898800000.0  6250000.0
  408.654  1915590000.0  6250000.0
  411.34  1932390000.0  6250000.0
  414.027  1949180000.0  6250000.0
  416.714  1965970000.0  6250000.0
  419.4  1982760000.0  6250000.0
  422.087  1999550000.0  6250000.0
  424.774  2016340000.0  6250000.0
  427.46  2033140000.0  6250000.0
  430.147  2049930000.0  6250000.0
  432.834  2066720000.0  6250000.0
  435.52  2083510000.0  6250000.0
  438.207  2100300000.0  6250000.0
  440.894  2117090000.0  6250000.0
  443.58  2133890000.0  6250000.0
  446.267  2150680000.0  6250000.0
  448.954  2167470000.0  6250000.0
  451.64  2184260000.0  6250000.0
  454.327  2201050000.0  6250000.0
  457.014  2217840000.0  6250000.0
  459.7  2234640000.0  6250000.0
  462.387  2251430000.0  6250000.0
  465.074  2268220000.0  6250000.0
  467.76  2285010000.0  6250000.0
  470.447  2301800000.0  6250000.0
  473.134  2318590000.0  6250000.0
  475.82  2335390000.0  6250000.0
  478.507  2352180000.0  6250000.0
  481.194  2368970000.0  6250000.0
  483.881  2385760000.0  6250000.0
  486.567  2402550000.0  6250000.0
  489.254  2419340000.0  6250000.0
  491.941  2436140000.0  6250000.0
  494.627  2452930000.0  6250000.0
  497.314  2469720000.0  6250000.0
  500.001  2486510000.0  6250000.0
END table

