BEGIN Options
  PRINT_INPUT
END Options

BEGIN Dimensions
  MAXBOUND  320
END Dimensions

BEGIN PERIOD  1
  1 1 1  160.0
  1 2 1  160.0
  1 3 1  160.0
  1 4 1  160.0
  1 5 1  160.0
  1 6 1  160.0
  1 7 1  160.0
  1 8 1  160.0
  1 9 1  160.0
  1 10 1  160.0
  1 11 1  160.0
  1 12 1  160.0
  1 13 1  160.0
  1 14 1  160.0
  1 15 1  160.0
  1 16 1  160.0
  1 17 1  160.0
  1 1 17  140.0
  1 2 17  140.0
  1 3 17  140.0
  1 4 17  140.0
  1 5 17  140.0
  1 6 17  140.0
  1 7 17  140.0
  1 8 17  140.0
  1 9 17  140.0
  1 10 17  140.0
  1 11 17  140.0
  1 12 17  140.0
  1 13 17  140.0
  1 14 17  140.0
  1 15 17  140.0
  1 16 17  140.0
  1 17 17  140.0
  2 1 1  160.0
  2 2 1  160.0
  2 3 1  160.0
  2 4 1  160.0
  2 5 1  160.0
  2 6 1  160.0
  2 7 1  160.0
  2 8 1  160.0
  2 9 1  160.0
  2 10 1  160.0
  2 11 1  160.0
  2 12 1  160.0
  2 13 1  160.0
  2 14 1  160.0
  2 15 1  160.0
  2 16 1  160.0
  2 17 1  160.0
  2 1 17  140.0
  2 2 17  140.0
  2 3 17  140.0
  2 4 17  140.0
  2 5 17  140.0
  2 6 17  140.0
  2 7 17  140.0
  2 8 17  140.0
  2 9 17  140.0
  2 10 17  140.0
  2 11 17  140.0
  2 12 17  140.0
  2 13 17  140.0
  2 14 17  140.0
  2 15 17  140.0
  2 16 17  140.0
  2 17 17  140.0
  3 1 1  160.0
  3 2 1  160.0
  3 3 1  160.0
  3 4 1  160.0
  3 5 1  160.0
  3 6 1  160.0
  3 7 1  160.0
  3 8 1  160.0
  3 9 1  160.0
  3 10 1  160.0
  3 11 1  160.0
  3 12 1  160.0
  3 13 1  160.0
  3 14 1  160.0
  3 15 1  160.0
  3 16 1  160.0
  3 17 1  160.0
  3 1 17  140.0
  3 2 17  140.0
  3 3 17  140.0
  3 4 17  140.0
  3 5 17  140.0
  3 6 17  140.0
  3 7 17  140.0
  3 8 17  140.0
  3 9 17  140.0
  3 10 17  140.0
  3 11 17  140.0
  3 12 17  140.0
  3 13 17  140.0
  3 14 17  140.0
  3 15 17  140.0
  3 16 17  140.0
  3 17 17  140.0
  4 1 1  160.0
  4 2 1  160.0
  4 3 1  160.0
  4 4 1  160.0
  4 5 1  160.0
  4 6 1  160.0
  4 7 1  160.0
  4 8 1  160.0
  4 9 1  160.0
  4 10 1  160.0
  4 11 1  160.0
  4 12 1  160.0
  4 13 1  160.0
  4 14 1  160.0
  4 15 1  160.0
  4 16 1  160.0
  4 17 1  160.0
  4 1 17  140.0
  4 2 17  140.0
  4 3 17  140.0
  4 4 17  140.0
  4 5 17  140.0
  4 6 17  140.0
  4 7 17  140.0
  4 8 17  140.0
  4 9 17  140.0
  4 10 17  140.0
  4 11 17  140.0
  4 12 17  140.0
  4 13 17  140.0
  4 14 17  140.0
  4 15 17  140.0
  4 16 17  140.0
  4 17 17  140.0
  5 1 1  160.0
  5 2 1  160.0
  5 3 1  160.0
  5 4 1  160.0
  5 5 1  160.0
  5 6 1  160.0
  5 7 1  160.0
  5 8 1  160.0
  5 9 1  160.0
  5 10 1  160.0
  5 11 1  160.0
  5 12 1  160.0
  5 13 1  160.0
  5 14 1  160.0
  5 15 1  160.0
  5 16 1  160.0
  5 17 1  160.0
  5 1 17  140.0
  5 2 17  140.0
  5 3 17  140.0
  5 4 17  140.0
  5 5 17  140.0
  5 6 17  140.0
  5 7 17  140.0
  5 8 17  140.0
  5 9 17  140.0
  5 10 17  140.0
  5 11 17  140.0
  5 12 17  140.0
  5 13 17  140.0
  5 14 17  140.0
  5 15 17  140.0
  5 16 17  140.0
  5 17 17  140.0
  1 1 2  158.85
  1 1 3  157.31
  1 1 4  155.77
  1 1 5  154.23
  1 1 6  152.69
  1 1 7  151.54
  1 1 8  150.77
  1 1 9  150.0
  1 1 10  149.23
  1 1 11  148.46
  1 1 12  147.31
  1 1 13  145.77
  1 1 14  144.23
  1 1 15  142.69
  1 1 16  141.15
  1 17 2  158.85
  1 17 3  157.31
  1 17 4  155.77
  1 17 5  154.23
  1 17 6  152.69
  1 17 7  151.54
  1 17 8  150.77
  1 17 9  150.0
  1 17 10  149.23
  1 17 11  148.46
  1 17 12  147.31
  1 17 13  145.77
  1 17 14  144.23
  1 17 15  142.69
  1 17 16  141.15
  2 1 2  158.85
  2 1 3  157.31
  2 1 4  155.77
  2 1 5  154.23
  2 1 6  152.69
  2 1 7  151.54
  2 1 8  150.77
  2 1 9  150.0
  2 1 10  149.23
  2 1 11  148.46
  2 1 12  147.31
  2 1 13  145.77
  2 1 14  144.23
  2 1 15  142.69
  2 1 16  141.15
  2 17 2  158.85
  2 17 3  157.31
  2 17 4  155.77
  2 17 5  154.23
  2 17 6  152.69
  2 17 7  151.54
  2 17 8  150.77
  2 17 9  150.0
  2 17 10  149.23
  2 17 11  148.46
  2 17 12  147.31
  2 17 13  145.77
  2 17 14  144.23
  2 17 15  142.69
  2 17 16  141.15
  3 1 2  158.85
  3 1 3  157.31
  3 1 4  155.77
  3 1 5  154.23
  3 1 6  152.69
  3 1 7  151.54
  3 1 8  150.77
  3 1 9  150.0
  3 1 10  149.23
  3 1 11  148.46
  3 1 12  147.31
  3 1 13  145.77
  3 1 14  144.23
  3 1 15  142.69
  3 1 16  141.15
  3 17 2  158.85
  3 17 3  157.31
  3 17 4  155.77
  3 17 5  154.23
  3 17 6  152.69
  3 17 7  151.54
  3 17 8  150.77
  3 17 9  150.0
  3 17 10  149.23
  3 17 11  148.46
  3 17 12  147.31
  3 17 13  145.77
  3 17 14  144.23
  3 17 15  142.69
  3 17 16  141.15
  4 1 2  158.85
  4 1 3  157.31
  4 1 4  155.77
  4 1 5  154.23
  4 1 6  152.69
  4 1 7  151.54
  4 1 8  150.77
  4 1 9  150.0
  4 1 10  149.23
  4 1 11  148.46
  4 1 12  147.31
  4 1 13  145.77
  4 1 14  144.23
  4 1 15  142.69
  4 1 16  141.15
  4 17 2  158.85
  4 17 3  157.31
  4 17 4  155.77
  4 17 5  154.23
  4 17 6  152.69
  4 17 7  151.54
  4 17 8  150.77
  4 17 9  150.0
  4 17 10  149.23
  4 17 11  148.46
  4 17 12  147.31
  4 17 13  145.77
  4 17 14  144.23
  4 17 15  142.69
  4 17 16  141.15
  5 1 2  158.85
  5 1 3  157.31
  5 1 4  155.77
  5 1 5  154.23
  5 1 6  152.69
  5 1 7  151.54
  5 1 8  150.77
  5 1 9  150.0
  5 1 10  149.23
  5 1 11  148.46
  5 1 12  147.31
  5 1 13  145.77
  5 1 14  144.23
  5 1 15  142.69
  5 1 16  141.15
  5 17 2  158.85
  5 17 3  157.31
  5 17 4  155.77
  5 17 5  154.23
  5 17 6  152.69
  5 17 7  151.54
  5 17 8  150.77
  5 17 9  150.0
  5 17 10  149.23
  5 17 11  148.46
  5 17 12  147.31
  5 17 13  145.77
  5 17 14  144.23
  5 17 15  142.69
  5 17 16  141.15
END PERIOD  1

