BEGIN Options
  PRINT_OPTION  summary
END Options

BEGIN Nonlinear
  OUTER_HCLOSE  0.0001
  OUTER_MAXIMUM  500
  UNDER_RELAXATION  none
  UNDER_RELAXATION_THETA  0.0
  UNDER_RELAXATION_KAPPA  0.0
  UNDER_RELAXATION_GAMMA  0.0
  UNDER_RELAXATION_MOMENTUM  0.0
END Nonlinear

BEGIN LINEAR
  INNER_MAXIMUM  100
  INNER_HCLOSE  0.0001
  INNER_RCLOSE  0.1
  LINEAR_ACCELERATION  cg
  RELAXATION_FACTOR  1.0
  NUMBER_ORTHOGONALIZATIONS  2
  REORDERING_METHOD  none
END LINEAR

