BEGIN options
  BOUNDNAMES
  PRINT_INPUT
  PRINT_FLOWS
END options

BEGIN dimensions
  NLAKES  1
  NOUTLETS  0
  NTABLES  1
END dimensions

BEGIN PACKAGEDATA
  1  110.0  57  lake_1
END PACKAGEDATA

BEGIN connectiondata
  1  1  1 7 6  horizontal  0.1  0.0  0.0  500.0  500.0
  1  2  1 8 6  horizontal  0.1  0.0  0.0  500.0  500.0
  1  3  1 9 6  horizontal  0.1  0.0  0.0  500.0  500.0
  1  4  1 10 6  horizontal  0.1  0.0  0.0  500.0  500.0
  1  5  1 11 6  horizontal  0.1  0.0  0.0  500.0  500.0
  1  6  1 6 7  horizontal  0.1  0.0  0.0  500.0  500.0
  1  7  2 7 7  vertical  0.1  0.0  0.0  0.0  0.0
  1  8  2 8 7  vertical  0.1  0.0  0.0  0.0  0.0
  1  9  2 8 7  horizontal  0.1  0.0  0.0  250.0  500.0
  1  10  2 9 7  vertical  0.1  0.0  0.0  0.0  0.0
  1  11  2 9 7  horizontal  0.1  0.0  0.0  250.0  500.0
  1  12  2 10 7  vertical  0.1  0.0  0.0  0.0  0.0
  1  13  2 10 7  horizontal  0.1  0.0  0.0  250.0  500.0
  1  14  2 11 7  vertical  0.1  0.0  0.0  0.0  0.0
  1  15  1 12 7  horizontal  0.1  0.0  0.0  500.0  500.0
  1  16  1 6 8  horizontal  0.1  0.0  0.0  500.0  500.0
  1  17  2 7 8  vertical  0.1  0.0  0.0  0.0  0.0
  1  18  2 7 8  horizontal  0.1  0.0  0.0  250.0  500.0
  1  19  3 8 8  vertical  0.1  0.0  0.0  0.0  0.0
  1  20  3 9 8  vertical  0.1  0.0  0.0  0.0  0.0
  1  21  3 10 8  vertical  0.1  0.0  0.0  0.0  0.0
  1  22  2 11 8  vertical  0.1  0.0  0.0  0.0  0.0
  1  23  2 11 8  horizontal  0.1  0.0  0.0  250.0  500.0
  1  24  1 12 8  horizontal  0.1  0.0  0.0  500.0  500.0
  1  25  1 6 9  horizontal  0.1  0.0  0.0  500.0  500.0
  1  26  2 7 9  vertical  0.1  0.0  0.0  0.0  0.0
  1  27  2 7 9  horizontal  0.1  0.0  0.0  250.0  500.0
  1  28  3 8 9  vertical  0.1  0.0  0.0  0.0  0.0
  1  29  3 9 9  vertical  0.1  0.0  0.0  0.0  0.0
  1  30  3 10 9  vertical  0.1  0.0  0.0  0.0  0.0
  1  31  2 11 9  vertical  0.1  0.0  0.0  0.0  0.0
  1  32  2 11 9  horizontal  0.1  0.0  0.0  250.0  500.0
  1  33  1 12 9  horizontal  0.1  0.0  0.0  500.0  500.0
  1  34  1 6 10  horizontal  0.1  0.0  0.0  500.0  500.0
  1  35  2 7 10  vertical  0.1  0.0  0.0  0.0  0.0
  1  36  2 7 10  horizontal  0.1  0.0  0.0  250.0  500.0
  1  37  3 8 10  vertical  0.1  0.0  0.0  0.0  0.0
  1  38  3 9 10  vertical  0.1  0.0  0.0  0.0  0.0
  1  39  3 10 10  vertical  0.1  0.0  0.0  0.0  0.0
  1  40  2 11 10  vertical  0.1  0.0  0.0  0.0  0.0
  1  41  2 11 10  horizontal  0.1  0.0  0.0  250.0  500.0
  1  42  1 12 10  horizontal  0.1  0.0  0.0  500.0  500.0
  1  43  1 6 11  horizontal  0.1  0.0  0.0  500.0  500.0
  1  44  2 7 11  vertical  0.1  0.0  0.0  0.0  0.0
  1  45  2 8 11  vertical  0.1  0.0  0.0  0.0  0.0
  1  46  2 8 11  horizontal  0.1  0.0  0.0  250.0  500.0
  1  47  2 9 11  vertical  0.1  0.0  0.0  0.0  0.0
  1  48  2 9 11  horizontal  0.1  0.0  0.0  250.0  500.0
  1  49  2 10 11  vertical  0.1  0.0  0.0  0.0  0.0
  1  50  2 10 11  horizontal  0.1  0.0  0.0  250.0  500.0
  1  51  2 11 11  vertical  0.1  0.0  0.0  0.0  0.0
  1  52  1 12 11  horizontal  0.1  0.0  0.0  500.0  500.0
  1  53  1 7 12  horizontal  0.1  0.0  0.0  500.0  500.0
  1  54  1 8 12  horizontal  0.1  0.0  0.0  500.0  500.0
  1  55  1 9 12  horizontal  0.1  0.0  0.0  500.0  500.0
  1  56  1 10 12  horizontal  0.1  0.0  0.0  500.0  500.0
  1  57  1 11 12  horizontal  0.1  0.0  0.0  500.0  500.0
END connectiondata

BEGIN tables
  1  TAB6  FILEIN  lakeex1b_table.ref
END tables

BEGIN period  1
  1  rainfall  0.0116
  1  evaporation  0.0103
END period  1

