 LISTING FILE: p7.m3d
                         UNIT  16
# Transport package input files                                                                                                                                                                         

 OPENING p7.btn
 FILE TYPE:BTN   UNIT   1

 OPENING p7.adv
 FILE TYPE:ADV   UNIT   2

 OPENING p7.dsp
 FILE TYPE:DSP   UNIT   3

 OPENING p7.ssm
 FILE TYPE:SSM   UNIT   4

 OPENING p7.gcg
 FILE TYPE:GCG   UNIT   9
# Flow-Transport Link input file                                                                                                                                                                        

 OPENING p7.ftl
 FILE TYPE:FTL   UNIT  10
# Uncomment the following lines to override                                                                                                                                                             
# the default names of optional MT3DMS output files                                                                                                                                                     
# mt3d001.ucn, mt3d001s.ucn, mt3d001.obs, mt3d001.mas, mt3d.cnf.                                                                                                                                        
# The unit numbers for these files are preset in the                                                                                                                                                    
# MT3DMS code.                                                                                                                                                                                          
# data(binary) 201 p7.ucn                                                                                                                                                                               
# data(binary) 301 p7s.ucn                                                                                                                                                                              
# data         401 p7.obs                                                                                                                                                                               
# data         601 p7.mas                                                                                                                                                                               
# data         17  p7.cnf                                                                                                                                                                               

                              +++++++++++++++++++++++++++++++++++++++++++++++++++++++++++++++++++++++
                              +                                                                     +
                              +                               MT3DMS                                +
                              +             A Modular 3D Multi-Species Transport Model              +
                              +    For Simulation of Advection, Dispersion and Chemical Reactions   +
                              +                of Contaminants in Groundwater Systems               +
                              +                                                                     +
                              +++++++++++++++++++++++++++++++++++++++++++++++++++++++++++++++++++++++

  ----- 
 | M T | 3D TRANSPORT IN UNIFORM FLOW FIELD WITH CONTINUOUS POINT SOURCE                 
 | 3 D | (REFER TO SECTION 7.7 OF MT3DMS MANUAL)                                         
  ----- 
 THE TRANSPORT MODEL CONSISTS OF     8 LAYER(S)   15 ROW(S)   21 COLUMN(S)
 NUMBER OF STRESS PERIOD(S) FOR TRANSPORT SIMULATION =    1
 NUMBER OF ALL COMPONENTS INCLUDED IN SIMULATION =    1
 NUMBER OF MOBILE COMPONENTS INCLUDED IN SIMULATION =    1
 UNIT FOR TIME IS  DAY;  UNIT FOR LENGTH IS   FT;  UNIT FOR MASS IS   LB
 OPTIONAL PACKAGES INCLUDED IN CURRENT SIMULATION:
  o ADV   ON UNIT  2
  o DSP   ON UNIT  3
  o SSM   ON UNIT  4
  o GCG   ON UNIT  9

 BTN5 -- BASIC TRANSPORT PACKAGE, VERSION 5, FEBRUARY 2010, INPUT READ FROM UNIT  1
      38187 ELEMENTS OF THE  X ARRAY USED BY THE BTN PACKAGE
       2528 ELEMENTS OF THE IX ARRAY USED BY THE BTN PACKAGE

 FMI5 -- FLOW MODEL INTERFACE PACKAGE, VERSION 5, FEBRUARY 2010, INPUT READ FROM UNIT 10
 FLOW MODEL IS STEADY-STATE
 FLOW MODEL CONTAINS CONSTANT-HEAD CELLS

 ADV5 -- ADVECTION PACKAGE, VERSION 5, FEBRUARY 2010, INPUT READ FROM UNIT  2
 ADVECTION IS SOLVED WITH THE ULTIMATE SCHEME
 COURANT NUMBER ALLOWED IN SOLVING THE ADVECTION TERM =  1.00    
          0 ELEMENTS OF THE  X ARRAY USED BY THE ADV PACKAGE
          0 ELEMENTS OF THE IX ARRAY USED BY THE ADV PACKAGE

 DSP5 -- DISPERSION PACKAGE, VERSION 5, FEBRUARY 2010, INPUT READ FROM UNIT  3
      27736 ELEMENTS OF THE  X ARRAY USED BY THE DSP PACKAGE
          0 ELEMENTS OF THE IX ARRAY USED BY THE DSP PACKAGE

 SSM5 -- SINK & SOURCE MIXING PACKAGE, VERSION 5, FEBRUARY 2010, INPUT READ FROM UNIT  4
 HEADER LINE OF THE SSM PACKAGE INPUT FILE:
  T F F F F F      FWEL,FDRN,FRCH,FEVT,FRIV,FGHB                                                                                                                                                         
 MAJOR STRESS COMPONENTS PRESENT IN THE FLOW MODEL:
  o WELL [WEL]
 MAXIMUM NUMBER OF POINT SINKS/SOURCES =    1000
      13000 ELEMENTS OF THE  X ARRAY USED BY THE SSM PACKAGE
          0 ELEMENTS OF THE IX ARRAY BY THE SSM PACKAGE

 GCG5 -- GENERALIZED CONJUGATE GRADIENT SOLVER PACKAGE, VERSION 5, FEBRUARY 2010 INPUT READ FROM UNIT  9
 MAXIMUM OF    1 OUTER ITERATIONS
        AND  200 INNER ITERATIONS ALLOWED FOR CLOSURE
 THE PRECONDITIONING TYPE SELECTED IS MODIFIED INCOMPLETE CHOLESKY (MIC).
 DISPERSION CROSS TERMS LUMPED INTO RIGHT-HAND-SIDE
      55640 ELEMENTS OF THE  X ARRAY USED BY THE GCG PACKAGE
        600 ELEMENTS OF THE IX ARRAY USED BY THE GCG PACKAGE

 ..........................................
 ELEMENTS OF THE  X ARRAY USED =    134564
 ELEMENTS OF THE IX ARRAY USED =      3129
 ..........................................

 LAYER NUMBER  AQUIFER TYPE
 ------------  ------------
       1            0
       2            0
       3            0
       4            0
       5            0
       6            0
       7            0
       8            0
                                       WIDTH ALONG ROWS (DELR)  =   10.00000    
                                       WIDTH ALONG COLS (DELC)  =   10.00000    
                                       TOP ELEV. OF 1ST LAYER   =   80.00000    
                                       CELL THICKNESS (DZ)      =   10.00000     FOR LAYER  1
                                       CELL THICKNESS (DZ)      =   10.00000     FOR LAYER  2
                                       CELL THICKNESS (DZ)      =   10.00000     FOR LAYER  3
                                       CELL THICKNESS (DZ)      =   10.00000     FOR LAYER  4
                                       CELL THICKNESS (DZ)      =   10.00000     FOR LAYER  5
                                       CELL THICKNESS (DZ)      =   10.00000     FOR LAYER  6
                                       CELL THICKNESS (DZ)      =   10.00000     FOR LAYER  7
                                       CELL THICKNESS (DZ)      =   10.00000     FOR LAYER  8
                                       POROSITY                 =  0.2000000     FOR LAYER  1
                                       POROSITY                 =  0.2000000     FOR LAYER  2
                                       POROSITY                 =  0.2000000     FOR LAYER  3
                                       POROSITY                 =  0.2000000     FOR LAYER  4
                                       POROSITY                 =  0.2000000     FOR LAYER  5
                                       POROSITY                 =  0.2000000     FOR LAYER  6
                                       POROSITY                 =  0.2000000     FOR LAYER  7
                                       POROSITY                 =  0.2000000     FOR LAYER  8
                                       CONCN. BOUNDARY ARRAY    =              1 FOR LAYER  1
                                       CONCN. BOUNDARY ARRAY    =              1 FOR LAYER  2
                                       CONCN. BOUNDARY ARRAY    =              1 FOR LAYER  3
                                       CONCN. BOUNDARY ARRAY    =              1 FOR LAYER  4
                                       CONCN. BOUNDARY ARRAY    =              1 FOR LAYER  5
                                       CONCN. BOUNDARY ARRAY    =              1 FOR LAYER  6
                                       CONCN. BOUNDARY ARRAY    =              1 FOR LAYER  7
                                       CONCN. BOUNDARY ARRAY    =              1 FOR LAYER  8
                                       INITIAL CONC.: COMP.  01 =   0.000000     FOR LAYER  1
                                       INITIAL CONC.: COMP.  01 =   0.000000     FOR LAYER  2
                                       INITIAL CONC.: COMP.  01 =   0.000000     FOR LAYER  3
                                       INITIAL CONC.: COMP.  01 =   0.000000     FOR LAYER  4
                                       INITIAL CONC.: COMP.  01 =   0.000000     FOR LAYER  5
                                       INITIAL CONC.: COMP.  01 =   0.000000     FOR LAYER  6
                                       INITIAL CONC.: COMP.  01 =   0.000000     FOR LAYER  7
                                       INITIAL CONC.: COMP.  01 =   0.000000     FOR LAYER  8

 VALUE INDICATING INACTIVE CONCENTRATION CELLS =    999.9900    
 MINIMUM SATURATED THICKNESS [THKMIN] ALLOWED =  0.0000 OF TOTAL CELL THICKNESS


 OUTPUT CONTROL OPTIONS
 ----------------------

 PRINT CELL CONCENTRATION USING FORMAT CODE:    1
 PRINT PARTICLE NUMBER IN EACH CELL USING FORMAT CODE:    2
 PRINT RETARDATION FACTOR USING FORMAT CODE:    0
 DO NOT PRINT DISPERSION COEFFICIENT
 SAVE DISSOLVED PHASE CONCENTRATIONS IN UNFORMATTED FILES [MT3Dnnn.UCN]
  FOR EACH SPECIES ON UNITS 201 AND ABOVE

 NUMBER OF TIMES AT WHICH SIMULATION RESULTS ARE SAVED =    0

 NUMBER OF OBSERVATION POINTS =    4
 SAVE CONCENTRATIONS AT OBSERVATION POINTS IN FILES [MT3Dnnn.OBS]
  FOR EACH SPECIES ON UNITS 401 AND ABOVE, EVERY  1 TRANSPORT STEPS
 LOCATION OF OBSERVATION POINTS
 ..............................
 NUMBER  LAYER   ROW   COLUMN
   1        7      8      3
   2        5      8      5
   3        5      9      5
   4        5     10      5

 SAVE ONE-LINE SUMMARY OF MASS BUDGETS IN FILES [MT3Dnnn.MAS]
  FOR EACH SPECIES ON UNITS 601 AND ABOVE, EVERY  1 TRANSPORT STEPS

 MAXIMUM LENGTH ALONG THE X (J) AXIS =   210.0000    
 MAXIMUM LENGTH ALONG THE Y (I) AXIS =   150.0000    
 MAXIMUM LENGTH ALONG THE Z (K) AXIS =   80.00000    


 ADVECTION SOLUTION OPTIONS
 --------------------------

 ADVECTION IS SOLVED WITH THE ULTIMATE SCHEME
 COURANT NUMBER ALLOWED IN SOLVING THE ADVECTION TERM =  1.00    


 DISPERSION INPUT PARAMETERS
 ---------------------------

                                       LONG. DISPERSIVITY (AL)  =   10.00000     FOR LAYER  1
                                       LONG. DISPERSIVITY (AL)  =   10.00000     FOR LAYER  2
                                       LONG. DISPERSIVITY (AL)  =   10.00000     FOR LAYER  3
                                       LONG. DISPERSIVITY (AL)  =   10.00000     FOR LAYER  4
                                       LONG. DISPERSIVITY (AL)  =   10.00000     FOR LAYER  5
                                       LONG. DISPERSIVITY (AL)  =   10.00000     FOR LAYER  6
                                       LONG. DISPERSIVITY (AL)  =   10.00000     FOR LAYER  7
                                       LONG. DISPERSIVITY (AL)  =   10.00000     FOR LAYER  8
                                       H. TRANS./LONG. DISP.    =  0.3000000    
                                       V. TRANS./LONG. DISP.    =  0.3000000    
                                       DIFFUSION COEFFICIENT    =   0.000000    



                                               SOLUTION BY THE GENERALIZED CONJUGATE GRADIENT METHOD
                                               -----------------------------------------------------
                                     MAXIMUM OUTER ITERATIONS ALLOWED FOR CLOSURE =        1
                                     MAXIMUM INNER ITERATIONS ALLOWED FOR CLOSURE =      200
                                                    PRECONDITIONING TYPE SELECTED =    3
                                                           ACCELERATION PARAMETER =     1.0000    
                                       CONCENTRATION CHANGE CRITERION FOR CLOSURE =    0.10000E-05
                                       GCG CONCENTRATION CHANGE PRINTOUT INTERVAL =      999


                                   ++++++++++++++++++++++++++++++++++++++++++++++++++++++++++++++
                                                       STRESS PERIOD NO.  001
                                   ++++++++++++++++++++++++++++++++++++++++++++++++++++++++++++++


 LENGTH OF CURRENT STRESS PERIOD =   100.0000    
 NUMBER OF TIME STEPS FOR CURRENT STRESS PERIOD =    1
 TIME STEP MULTIPLIER USED IN FLOW SOLUTION =   1.000000    

 ***Type of Transport Simulation is TRANSIENT

 USER-SPECIFIED TRANSPORT STEPSIZE =   0.000000     DAY
 MAXIMUM NUMBER OF TRANSPORT STEPS ALLOWED  IN ONE FLOW TIME STEP =     10000
 MULTIPLIER FOR SUCCESSIVE TRANSPORT STEPS  [USED IN IMPLICIT SCHEMES] =     1.000
 MAXIMUM TRANSPORT STEP SIZE  [USED IN IMPLICIT SCHEMES] =   3.500000     DAY

       NO    LAYER   ROW   COLUMN   CONCENTRATION       TYPE            COMPONENT
       1       7       8       3       100.0000         WELL                1


                                          ================================================
                                                         TIME STEP NO.  001
                                          ================================================

 FROM TIME =   0.0000     TO    100.00    


                    "THKSAT          " FLOW TERMS FOR TIME STEP  1, STRESS PERIOD  1 READ UNFORMATTED ON UNIT 10
                    --------------------------------------------------------------------------------------------

                    "QXX             " FLOW TERMS FOR TIME STEP  1, STRESS PERIOD  1 READ UNFORMATTED ON UNIT 10
                    --------------------------------------------------------------------------------------------

                    "QYY             " FLOW TERMS FOR TIME STEP  1, STRESS PERIOD  1 READ UNFORMATTED ON UNIT 10
                    --------------------------------------------------------------------------------------------

                    "QZZ             " FLOW TERMS FOR TIME STEP  1, STRESS PERIOD  1 READ UNFORMATTED ON UNIT 10
                    --------------------------------------------------------------------------------------------

 MAXIMUM STEPSIZE DURING WHICH ANY PARTICLE CANNOT MOVE MORE THAN ONE CELL
 =  19.90    (WHEN MIN. R.F.=1)  AT K=   7, I=   8, J=   4

 MAXIMUM STEPSIZE WHICH MEETS STABILITY CRITERION OF THE ADVECTION TERM
 (FOR PURE FINITE-DIFFERENCE OPTION, MIXELM=0) 
 =  19.51    (WHEN MIN. R.F.=1)  AT K=   7, I=   8, J=   3

                    "CNH             " FLOW TERMS FOR TIME STEP  1, STRESS PERIOD  1 READ UNFORMATTED ON UNIT 10
                    --------------------------------------------------------------------------------------------

                    "WEL             " FLOW TERMS FOR TIME STEP  1, STRESS PERIOD  1 READ UNFORMATTED ON UNIT 10
                    --------------------------------------------------------------------------------------------


 TOTAL NUMBER OF POINT SOURCES/SINKS PRESENT IN THE FLOW MODEL =   241

 MAXIMUM STEPSIZE WHICH MEETS STABILITY CRITERION OF THE SINK & SOURCE TERM
 =  20.00    (WHEN MIN. R.F.=1)  AT K=   1, I=  15, J=   1

 MAXIMUM STEPSIZE WHICH MEETS STABILITY CRITERION OF THE DISPERSION TERM
 =  6.219    (WHEN MIN. R.F.=1)  AT K=   7, I=   8, J=   3


     1 CALLS TO GCG PACKAGE FOR TRANSPORT TIME STEP   1 IN FLOW TIME STEP   1 STRESS PERIOD   1
     4 TOTAL ITERATIONS
     1 CALLS TO GCG PACKAGE FOR TRANSPORT TIME STEP   2 IN FLOW TIME STEP   1 STRESS PERIOD   1
     4 TOTAL ITERATIONS
     1 CALLS TO GCG PACKAGE FOR TRANSPORT TIME STEP   3 IN FLOW TIME STEP   1 STRESS PERIOD   1
     4 TOTAL ITERATIONS
     1 CALLS TO GCG PACKAGE FOR TRANSPORT TIME STEP   4 IN FLOW TIME STEP   1 STRESS PERIOD   1
     4 TOTAL ITERATIONS
     1 CALLS TO GCG PACKAGE FOR TRANSPORT TIME STEP   5 IN FLOW TIME STEP   1 STRESS PERIOD   1
     4 TOTAL ITERATIONS
     1 CALLS TO GCG PACKAGE FOR TRANSPORT TIME STEP   6 IN FLOW TIME STEP   1 STRESS PERIOD   1
     4 TOTAL ITERATIONS
     1 CALLS TO GCG PACKAGE FOR TRANSPORT TIME STEP   7 IN FLOW TIME STEP   1 STRESS PERIOD   1
     4 TOTAL ITERATIONS
     1 CALLS TO GCG PACKAGE FOR TRANSPORT TIME STEP   8 IN FLOW TIME STEP   1 STRESS PERIOD   1
     4 TOTAL ITERATIONS
     1 CALLS TO GCG PACKAGE FOR TRANSPORT TIME STEP   9 IN FLOW TIME STEP   1 STRESS PERIOD   1
     4 TOTAL ITERATIONS
     1 CALLS TO GCG PACKAGE FOR TRANSPORT TIME STEP  10 IN FLOW TIME STEP   1 STRESS PERIOD   1
     4 TOTAL ITERATIONS
     1 CALLS TO GCG PACKAGE FOR TRANSPORT TIME STEP  11 IN FLOW TIME STEP   1 STRESS PERIOD   1
     4 TOTAL ITERATIONS
     1 CALLS TO GCG PACKAGE FOR TRANSPORT TIME STEP  12 IN FLOW TIME STEP   1 STRESS PERIOD   1
     4 TOTAL ITERATIONS
     1 CALLS TO GCG PACKAGE FOR TRANSPORT TIME STEP  13 IN FLOW TIME STEP   1 STRESS PERIOD   1
     4 TOTAL ITERATIONS
     1 CALLS TO GCG PACKAGE FOR TRANSPORT TIME STEP  14 IN FLOW TIME STEP   1 STRESS PERIOD   1
     4 TOTAL ITERATIONS
     1 CALLS TO GCG PACKAGE FOR TRANSPORT TIME STEP  15 IN FLOW TIME STEP   1 STRESS PERIOD   1
     4 TOTAL ITERATIONS
     1 CALLS TO GCG PACKAGE FOR TRANSPORT TIME STEP  16 IN FLOW TIME STEP   1 STRESS PERIOD   1
     4 TOTAL ITERATIONS
     1 CALLS TO GCG PACKAGE FOR TRANSPORT TIME STEP  17 IN FLOW TIME STEP   1 STRESS PERIOD   1
     4 TOTAL ITERATIONS
     1 CALLS TO GCG PACKAGE FOR TRANSPORT TIME STEP  18 IN FLOW TIME STEP   1 STRESS PERIOD   1
     4 TOTAL ITERATIONS
     1 CALLS TO GCG PACKAGE FOR TRANSPORT TIME STEP  19 IN FLOW TIME STEP   1 STRESS PERIOD   1
     4 TOTAL ITERATIONS
     1 CALLS TO GCG PACKAGE FOR TRANSPORT TIME STEP  20 IN FLOW TIME STEP   1 STRESS PERIOD   1
     4 TOTAL ITERATIONS
     1 CALLS TO GCG PACKAGE FOR TRANSPORT TIME STEP  21 IN FLOW TIME STEP   1 STRESS PERIOD   1
     4 TOTAL ITERATIONS
     1 CALLS TO GCG PACKAGE FOR TRANSPORT TIME STEP  22 IN FLOW TIME STEP   1 STRESS PERIOD   1
     4 TOTAL ITERATIONS
     1 CALLS TO GCG PACKAGE FOR TRANSPORT TIME STEP  23 IN FLOW TIME STEP   1 STRESS PERIOD   1
     4 TOTAL ITERATIONS
     1 CALLS TO GCG PACKAGE FOR TRANSPORT TIME STEP  24 IN FLOW TIME STEP   1 STRESS PERIOD   1
     4 TOTAL ITERATIONS
     1 CALLS TO GCG PACKAGE FOR TRANSPORT TIME STEP  25 IN FLOW TIME STEP   1 STRESS PERIOD   1
     4 TOTAL ITERATIONS
     1 CALLS TO GCG PACKAGE FOR TRANSPORT TIME STEP  26 IN FLOW TIME STEP   1 STRESS PERIOD   1
     4 TOTAL ITERATIONS
     1 CALLS TO GCG PACKAGE FOR TRANSPORT TIME STEP  27 IN FLOW TIME STEP   1 STRESS PERIOD   1
     4 TOTAL ITERATIONS
     1 CALLS TO GCG PACKAGE FOR TRANSPORT TIME STEP  28 IN FLOW TIME STEP   1 STRESS PERIOD   1
     4 TOTAL ITERATIONS
     1 CALLS TO GCG PACKAGE FOR TRANSPORT TIME STEP  29 IN FLOW TIME STEP   1 STRESS PERIOD   1
     3 TOTAL ITERATIONS
  MAXIMUM CONCENTRATION CHANGES FOR EACH ITERATION:
  MAX. CHANGE LAYER,ROW,COL MAX. CHANGE LAYER,ROW,COL MAX. CHANGE LAYER,ROW,COL MAX. CHANGE LAYER,ROW,COL MAX. CHANGE LAYER,ROW,COL
 ------------------------------------------------------------------------------------------------------------------------------------
   0.6151E-01 (  7,  8,  3)  0.1263E-03 (  7,  7,  4)  0.4545E-06 (  6,  7,  5)



 >>>>>>>>>>>>>>>>>>>>>>>>>>>>>>>>>>>>>>>>>>>>>>>>>>>>>>>FOR COMPONENT NO. 01<<<<<<<<<<<<<<<<<<<<<<<<<<<<<<<<<<<<<<<<<<<<<<<<<<<<<<<


                                            -------------------------------------------
                                                      TRANSPORT STEP NO.   29
                                            -------------------------------------------

 TOTAL ELAPSED TIME SINCE BEGINNING OF SIMULATION =   100.0000     DAY
 .....................................................................

                     CONCENTRATIONS   IN LAYER  1 AT END OF TRANSPORT STEP   29, TIME STEP  1, STRESS PERIOD  1
                     ------------------------------------------------------------------------------------------

           1          2          3          4          5          6          7          8          9         10         11
          12         13         14         15         16         17         18         19         20         21
 ..............................................................................................................................
   1   6.800E-08  1.050E-07  1.599E-07  2.215E-07  2.804E-07  3.251E-07  3.449E-07  3.375E-07  3.032E-07  2.506E-07  1.910E-07
       1.346E-07  8.803E-08  5.354E-08  3.039E-08  1.615E-08  8.054E-09  3.784E-09  1.678E-09  6.970E-10  2.392E-10
   2   2.435E-07  3.782E-07  5.805E-07  8.091E-07  1.028E-06  1.192E-06  1.260E-06  1.228E-06  1.094E-06  8.953E-07  6.744E-07
       4.691E-07  3.022E-07  1.809E-07  1.009E-07  5.265E-08  2.577E-08  1.187E-08  5.161E-09  2.104E-09  7.206E-10
   3   9.319E-07  1.456E-06  2.250E-06  3.152E-06  4.014E-06  4.653E-06  4.901E-06  4.750E-06  4.199E-06  3.401E-06  2.532E-06
       1.739E-06  1.104E-06  6.510E-07  3.574E-07  1.833E-07  8.818E-08  3.990E-08  1.702E-08  6.821E-09  2.331E-09
   4   3.170E-06  4.980E-06  7.751E-06  1.091E-05  1.391E-05  1.611E-05  1.687E-05  1.625E-05  1.424E-05  1.140E-05  8.386E-06
       5.681E-06  3.556E-06  2.064E-06  1.115E-06  5.626E-07  2.659E-07  1.182E-07  4.953E-08  1.951E-08  6.648E-09
   5   9.251E-06  1.461E-05  2.289E-05  3.236E-05  4.130E-05  4.769E-05  4.961E-05  4.743E-05  4.109E-05  3.252E-05  2.361E-05
       1.577E-05  9.723E-06  5.556E-06  2.953E-06  1.465E-06  6.807E-07  2.973E-07  1.224E-07  4.743E-08  1.611E-08
   6   2.224E-05  3.530E-05  5.569E-05  7.898E-05  1.007E-04  1.158E-04  1.194E-04  1.132E-04  9.692E-05  7.572E-05  5.422E-05
       3.570E-05  2.169E-05  1.221E-05  6.389E-06  3.119E-06  1.426E-06  6.129E-07  2.483E-07  9.475E-08  3.207E-08
   7   4.136E-05  6.597E-05  1.047E-04  1.489E-04  1.894E-04  2.166E-04  2.212E-04  2.075E-04  1.755E-04  1.355E-04  9.581E-05
       6.228E-05  3.736E-05  2.075E-05  1.072E-05  5.165E-06  2.331E-06  9.884E-07  3.953E-07  1.490E-07  5.028E-08
   8   5.363E-05  8.583E-05  1.368E-04  1.946E-04  2.469E-04  2.807E-04  2.847E-04  2.651E-04  2.225E-04  1.704E-04  1.196E-04
       7.719E-05  4.597E-05  2.537E-05  1.301E-05  6.230E-06  2.793E-06  1.177E-06  4.680E-07  1.755E-07  5.912E-08
   9   4.136E-05  6.597E-05  1.047E-04  1.489E-04  1.894E-04  2.166E-04  2.212E-04  2.075E-04  1.755E-04  1.355E-04  9.581E-05
       6.228E-05  3.736E-05  2.075E-05  1.072E-05  5.165E-06  2.331E-06  9.884E-07  3.953E-07  1.490E-07  5.028E-08
  10   2.224E-05  3.530E-05  5.569E-05  7.898E-05  1.007E-04  1.158E-04  1.194E-04  1.132E-04  9.692E-05  7.572E-05  5.422E-05
       3.570E-05  2.169E-05  1.221E-05  6.389E-06  3.119E-06  1.426E-06  6.129E-07  2.483E-07  9.475E-08  3.207E-08
  11   9.251E-06  1.461E-05  2.290E-05  3.236E-05  4.130E-05  4.769E-05  4.961E-05  4.743E-05  4.109E-05  3.252E-05  2.360E-05
       1.577E-05  9.722E-06  5.556E-06  2.953E-06  1.465E-06  6.807E-07  2.973E-07  1.224E-07  4.743E-08  1.611E-08
  12   3.170E-06  4.980E-06  7.751E-06  1.091E-05  1.391E-05  1.611E-05  1.687E-05  1.625E-05  1.424E-05  1.140E-05  8.386E-06
       5.681E-06  3.556E-06  2.064E-06  1.115E-06  5.625E-07  2.659E-07  1.182E-07  4.953E-08  1.951E-08  6.648E-09
  13   9.319E-07  1.456E-06  2.250E-06  3.153E-06  4.014E-06  4.653E-06  4.901E-06  4.750E-06  4.199E-06  3.401E-06  2.532E-06
       1.739E-06  1.104E-06  6.510E-07  3.574E-07  1.833E-07  8.818E-08  3.990E-08  1.702E-08  6.821E-09  2.331E-09
  14   2.435E-07  3.782E-07  5.805E-07  8.091E-07  1.028E-06  1.192E-06  1.260E-06  1.228E-06  1.094E-06  8.953E-07  6.743E-07
       4.691E-07  3.022E-07  1.809E-07  1.009E-07  5.265E-08  2.577E-08  1.187E-08  5.161E-09  2.104E-09  7.208E-10
  15   6.800E-08  1.050E-07  1.599E-07  2.215E-07  2.804E-07  3.250E-07  3.449E-07  3.375E-07  3.032E-07  2.505E-07  1.910E-07
       1.346E-07  8.802E-08  5.354E-08  3.039E-08  1.614E-08  8.054E-09  3.784E-09  1.678E-09  6.972E-10  2.393E-10

                     CONCENTRATIONS   IN LAYER  2 AT END OF TRANSPORT STEP   29, TIME STEP  1, STRESS PERIOD  1
                     ------------------------------------------------------------------------------------------

           1          2          3          4          5          6          7          8          9         10         11
          12         13         14         15         16         17         18         19         20         21
 ..............................................................................................................................
   1   2.092E-07  3.249E-07  4.986E-07  6.947E-07  8.823E-07  1.023E-06  1.082E-06  1.054E-06  9.400E-07  7.692E-07  5.796E-07
       4.034E-07  2.600E-07  1.557E-07  8.693E-08  4.539E-08  2.223E-08  1.025E-08  4.460E-09  1.820E-09  6.234E-10
   2   7.805E-07  1.220E-06  1.888E-06  2.646E-06  3.369E-06  3.906E-06  4.111E-06  3.982E-06  3.517E-06  2.845E-06  2.115E-06
       1.450E-06  9.195E-07  5.411E-07  2.965E-07  1.518E-07  7.288E-08  3.291E-08  1.401E-08  5.605E-09  1.915E-09
   3   3.111E-06  4.891E-06  7.624E-06  1.074E-05  1.370E-05  1.586E-05  1.659E-05  1.597E-05  1.396E-05  1.116E-05  8.186E-06
       5.531E-06  3.453E-06  1.998E-06  1.076E-06  5.410E-07  2.548E-07  1.129E-07  4.712E-08  1.850E-08  6.299E-09
   4   1.106E-05  1.748E-05  2.745E-05  3.884E-05  4.958E-05  5.721E-05  5.941E-05  5.669E-05  4.898E-05  3.864E-05  2.795E-05
       1.859E-05  1.142E-05  6.497E-06  3.437E-06  1.697E-06  7.844E-07  3.408E-07  1.396E-07  5.380E-08  1.825E-08
   5   3.385E-05  5.384E-05  8.515E-05  1.209E-04  1.542E-04  1.771E-04  1.820E-04  1.719E-04  1.465E-04  1.139E-04  8.110E-05
       5.308E-05  3.205E-05  1.792E-05  9.313E-06  4.514E-06  2.048E-06  8.731E-07  3.509E-07  1.328E-07  4.487E-08
   6   8.572E-05  1.372E-04  2.186E-04  3.113E-04  3.957E-04  4.507E-04  4.577E-04  4.266E-04  3.579E-04  2.739E-04  1.918E-04
       1.235E-04  7.331E-05  4.029E-05  2.058E-05  9.799E-06  4.368E-06  1.830E-06  7.224E-07  2.690E-07  9.047E-08
   7   1.681E-04  2.707E-04  4.346E-04  6.197E-04  7.830E-04  8.817E-04  8.850E-04  8.102E-04  6.695E-04  5.043E-04  3.478E-04
       2.204E-04  1.289E-04  6.979E-05  3.511E-05  1.648E-05  7.239E-06  2.988E-06  1.163E-06  4.274E-07  1.432E-07
   8   2.266E-04  3.668E-04  5.925E-04  8.443E-04  1.059E-03  1.179E-03  1.173E-03  1.058E-03  8.651E-04  6.449E-04  4.404E-04
       2.766E-04  1.603E-04  8.610E-05  4.299E-05  2.002E-05  8.733E-06  3.580E-06  1.384E-06  5.055E-07  1.691E-07
   9   1.681E-04  2.707E-04  4.346E-04  6.197E-04  7.830E-04  8.817E-04  8.850E-04  8.102E-04  6.694E-04  5.043E-04  3.478E-04
       2.204E-04  1.289E-04  6.979E-05  3.511E-05  1.648E-05  7.239E-06  2.988E-06  1.163E-06  4.274E-07  1.432E-07
  10   8.572E-05  1.372E-04  2.186E-04  3.113E-04  3.957E-04  4.507E-04  4.577E-04  4.266E-04  3.579E-04  2.739E-04  1.918E-04
       1.235E-04  7.331E-05  4.029E-05  2.058E-05  9.799E-06  4.368E-06  1.830E-06  7.224E-07  2.690E-07  9.047E-08
  11   3.385E-05  5.384E-05  8.515E-05  1.209E-04  1.542E-04  1.771E-04  1.820E-04  1.719E-04  1.465E-04  1.139E-04  8.110E-05
       5.308E-05  3.205E-05  1.792E-05  9.312E-06  4.514E-06  2.048E-06  8.731E-07  3.509E-07  1.328E-07  4.488E-08
  12   1.106E-05  1.748E-05  2.745E-05  3.884E-05  4.958E-05  5.721E-05  5.941E-05  5.669E-05  4.898E-05  3.864E-05  2.795E-05
       1.859E-05  1.142E-05  6.497E-06  3.437E-06  1.697E-06  7.844E-07  3.408E-07  1.396E-07  5.380E-08  1.825E-08
  13   3.111E-06  4.892E-06  7.624E-06  1.074E-05  1.370E-05  1.586E-05  1.659E-05  1.596E-05  1.396E-05  1.116E-05  8.185E-06
       5.530E-06  3.452E-06  1.998E-06  1.076E-06  5.410E-07  2.548E-07  1.129E-07  4.712E-08  1.850E-08  6.300E-09
  14   7.806E-07  1.220E-06  1.888E-06  2.646E-06  3.369E-06  3.906E-06  4.111E-06  3.982E-06  3.517E-06  2.845E-06  2.115E-06
       1.450E-06  9.194E-07  5.411E-07  2.965E-07  1.518E-07  7.288E-08  3.291E-08  1.402E-08  5.606E-09  1.915E-09
  15   2.092E-07  3.249E-07  4.986E-07  6.947E-07  8.823E-07  1.023E-06  1.082E-06  1.054E-06  9.400E-07  7.692E-07  5.796E-07
       4.033E-07  2.600E-07  1.557E-07  8.693E-08  4.539E-08  2.223E-08  1.025E-08  4.461E-09  1.820E-09  6.236E-10

                     CONCENTRATIONS   IN LAYER  3 AT END OF TRANSPORT STEP   29, TIME STEP  1, STRESS PERIOD  1
                     ------------------------------------------------------------------------------------------

           1          2          3          4          5          6          7          8          9         10         11