# Well file for MODFLOW, generated by Flopy.
         6         0
         6         0 # stress period 0
         1         9        16 -0.000000
         1        11        13 -0.000000
         1        20        14 -0.000000
         1        26        10 -0.000000
         1        29         6 -0.000000
         1        34        12 -0.000000
         6         0 # stress period 1
         1         9        16 -148.244995
         1        11        13 -128.361923
         1        20        14 -456.981628
         1        26        10 -68.657112
         1        29         6 -18.750366
         1        34        12 -481.407227
         6         0 # stress period 2
         1         9        16 -545.915222
         1        11        13 -79.819710
         1        20        14 -271.770599
         1        26        10 -31.301023
         1        29         6 -8.797573
         1        34        12 -681.072266
         6         0 # stress period 3
         1         9        16 -1028.133057
         1        11        13 -143.679459
         1        20        14 -46.791817
         1        26        10 -70.673790
         1        29         6 -43.353779
         1        34        12 -166.062851
         6         0 # stress period 4
         1         9        16 -1428.388306
         1        11        13 -1190.548706
         1        20        14 -115.079285
         1        26        10 -211.659286
         1        29         6 -84.133812
         1        34        12 -89.692558
         6         0 # stress period 5
         1         9        16 -265.171021
         1        11        13 -606.912964
         1        20        14 -612.659607
         1        26        10 -387.253357
         1        29         6 -70.927650
         1        34        12 -300.995789
         6         0 # stress period 6
         1         9        16 -256.406982
         1        11        13 -177.715729
         1        20        14 -788.821777
         1        26        10 -414.536438
         1        29         6 -76.288353
         1        34        12 -636.961853
         6         0 # stress period 7
         1         9        16 -1985.689331
         1        11        13 -281.578766
         1        20        14 -752.824036
         1        26        10 -304.483704
         1        29         6 -35.353886
         1        34        12 -496.462769
         6         0 # stress period 8
         1         9        16 -1952.707520
         1        11        13 -293.463287
         1        20        14 -2173.183838
         1        26        10 -268.960571
         1        29         6 -78.516289
         1        34        12 -499.018616
         6         0 # stress period 9
         1         9        16 -203.073715
         1        11        13 -792.848999
         1        20        14 -2068.377197
         1        26        10 -390.202362
         1        29         6 -62.746899
         1        34        12 -1313.747559
         6         0 # stress period 10
         1         9        16 -22.441105
         1        11        13 -1922.185303
         1        20        14 -194.879700
         1        26        10 -348.337250
         1        29         6 -47.887760
         1        34        12 -1427.043579
         6         0 # stress period 11
         1         9        16 -239.366623
         1        11        13 -154.654068
         1        20        14 -489.185242
         1        26        10 -99.362595
         1        29         6 -55.318657
         1        34        12 -323.938690
         6         0 # stress period 12
         1         9        16 -3478.421143
         1        11        13 -55.014191
         1        20        14 -345.093475
         1        26        10 -191.983643
         1        29         6 -83.508461
         1        34        12 -146.673111
         6         0 # stress period 13
         1         9        16 -616.103271
         1        11        13 -404.973022
         1        20        14 -156.101730
         1        26        10 -284.905731
         1        29         6 -429.501709
         1        34        12 -103.031364
         6         0 # stress period 14
         1         9        16 -651.992615
         1        11        13 -212.575912
         1        20        14 -317.654388
         1        26        10 -43.556618
         1        29         6 -291.697754
         1        34        12 -203.711838
         6         0 # stress period 15
         1         9        16 -892.304749
         1        11        13 -90.039986
         1        20        14 -153.712021
         1        26        10 -61.636131
         1        29         6 -67.226295
         1        34        12 -880.860352
         6         0 # stress period 16
         1         9        16 -862.657166
         1        11        13 -179.701004
         1        20        14 -914.303284
         1        26        10 -334.939209
         1        29         6 -31.320679
         1        34        12 -1197.094971
         6         0 # stress period 17
         1         9        16 -1338.080566
         1        11        13 -144.019547
         1        20        14 -4177.644531
         1        26        10 -101.784256
         1        29         6 -146.462692
         1        34        12 -895.768250
         6         0 # stress period 18
         1         9        16 -596.158752
         1        11        13 -718.586304
         1        20        14 -780.628967
         1        26        10 -12.031877
         1        29         6 -1423.995850
         1        34        12 -449.381866
         6         0 # stress period 19
         1         9        16 -606.662109
         1        11        13 -797.729858
         1        20        14 -127.782555
         1        26        10 -58.037041
         1        29         6 -85.198067
         1        34        12 -88.717712
         6         0 # stress period 20
         1         9        16 -1529.111816
         1        11        13 -77.894547
         1        20        14 -25.404716
         1        26        10 -317.246643
         1        29         6 -6.203530
         1        34        12 -76.570229
         6         0 # stress period 21
         1         9        16 -4181.912598
         1        11        13 -203.555542
         1        20        14 -61.309059
         1        26        10 -199.739334
         1        29         6 -48.089630
         1        34        12 -142.039444
         6         0 # stress period 22
         1         9        16 -1996.639526
         1        11        13 -475.195404
         1        20        14 -382.274567
         1        26        10 -109.515991
         1        29         6 -128.404877
         1        34        12 -262.566772
         6         0 # stress period 23
         1         9        16 -1698.359619
         1        11        13 -363.444305
         1        20        14 -119.314255
         1        26        10 -100.627434
         1        29         6 -82.427307
         1        34        12 -171.571533
         6         0 # stress period 24
         1         9        16 -1556.326416
         1        11        13 -220.435104
         1        20        14 -48.634087
         1        26        10 -187.129807
         1        29         6 -58.445614
         1        34        12 -749.000977
         6         0 # stress period 25
         1         9        16 -235.386917
         1        11        13 -120.024345
         1        20        14 -148.559479
         1        26        10 -20.567564
         1        29         6 -60.186428
         1        34        12 -4286.686523
         6         0 # stress period 26
         1         9        16 -242.779846
         1        11        13 -524.537354
         1        20        14 -450.607574
         1        26        10 -4.744822
         1        29         6 -108.442162
         1        34        12 -374.392639
         6         0 # stress period 27
         1         9        16 -991.609680
         1        11        13 -1544.286865
         1        20        14 -261.541016
         1        26        10 -26.221680
         1        29         6 -83.088219
         1        34        12 -239.136307
         6         0 # stress period 28
         1         9        16 -786.778687
         1        11        13 -571.597778
         1        20        14 -247.436584
         1        26        10 -184.666611
         1        29         6 -67.226715
         1        34        12 -947.925903
         6         0 # stress period 29
         1         9        16 -389.045410
         1        11        13 -593.926880
         1        20        14 -735.562012
         1        26        10 -546.385193
         1        29         6 -18.163202
         1        34        12 -2537.393555
         6         0 # stress period 30
         1         9        16 -164.737167
         1        11        13 -1380.219727
         1        20        14 -762.836731
         1        26        10 -86.874283
         1        29         6 -11.480218
         1        34        12 -481.833130
         6         0 # stress period 31
         1         9        16 -1479.917603
         1        11        13 -825.128418
         1        20        14 -697.864868
         1        26        10 -164.725616
         1        29         6 -40.741177
         1        34        12 -138.905884
         6         0 # stress period 32
         1         9        16 -9009.818359
         1        11        13 -208.324600
         1        20        14 -379.504059
         1        26        10 -235.497559
         1        29         6 -46.229633
         1        34        12 -281.684174
         6         0 # stress period 33
         1         9        16 -1036.302979
         1        11        13 -168.519775
         1        20        14 -188.427841
         1        26        10 -4.548383
         1        29         6 -20.230881
         1        34        12 -122.295837
         6         0 # stress period 34
         1         9        16 -514.236633
         1        11        13 -173.114639
         1        20        14 -428.180573
         1        26        10 -8.624629
         1        29         6 -41.993073
         1        34        12 -490.486572
         6         0 # stress period 35
         1         9        16 -285.089508
         1        11        13 -63.063961
         1        20        14 -633.535645
         1        26        10 -312.260834
         1        29         6 -183.828674
         1        34        12 -305.144348
         6         0 # stress period 36
         1         9        16 -918.004822
         1        11        13 -247.177963
         1        20        14 -149.622391
         1        26        10 -99.724136
         1        29         6 -290.006226
         1        34        12 -10.868358
         6         0 # stress period 37
         1         9        16 -975.779236
         1        11        13 -241.751663
         1        20        14 -308.963959
         1        26        10 -82.662453
         1        29         6 -136.168503
         1        34        12 -128.440292
         6         0 # stress period 38
         1         9        16 -482.966644
         1        11        13 -86.717949
         1        20        14 -1391.154419
         1        26        10 -474.754059
         1        29         6 -44.904667
         1        34        12 -1179.774414
         6         0 # stress period 39
         1         9        16 -1517.528198
         1        11        13 -120.318085
         1        20        14 -399.727692
         1        26        10 -423.753876
         1        29         6 -34.757702
         1        34        12 -1011.681274
         6         0 # stress period 40
         1         9        16 -382.685303
         1        11        13 -61.366699
         1        20        14 -425.562195
         1        26        10 -301.183044
         1        29         6 -118.625175
         1        34        12 -743.691956
         6         0 # stress period 41
         1         9        16 -411.144989
         1        11        13 -106.629921
         1        20        14 -1597.305786
         1        26        10 -98.027939
         1        29         6 -86.647575
         1        34        12 -562.499634
         6         0 # stress period 42
         1         9        16 -1411.580933
         1        11        13 -446.845428
         1        20        14 -742.753906
         1        26        10 -69.606377
         1        29         6 -26.515182
         1        34        12 -955.334351
         6         0 # stress period 43
         1         9        16 -2435.071045
         1        11        13 -1842.423706
         1        20        14 -238.542450
         1        26        10 -32.742073
         1        29         6 -46.694321
         1        34        12 -465.123444
         6         0 # stress period 44
         1         9        16 -2979.871582
         1        11        13 -696.226990
         1        20        14 -178.172028
         1        26        10 -120.155540
         1        29         6 -83.099487
         1        34        12 -101.867241
         6         0 # stress period 45
         1         9        16 -4388.499023
         1        11        13 -526.160217
         1        20        14 -109.416672
         1        26        10 -408.379913
         1        29         6 -287.886078
         1        34        12 -102.189423
         6         0 # stress period 46
         1         9        16 -4701.538086
         1        11        13 -405.750092
         1        20        14 -116.191132
         1        26        10 -236.573288
         1        29         6 -19.061926
         1        34        12 -749.716003
         6         0 # stress period 47
         1         9        16 -401.687622
         1        11        13 -1332.202271
         1        20        14 -207.172913
         1        26        10 -79.912247
         1        29         6 -4.043205
         1        34        12 -1636.001465
         6         0 # stress period 48
         1         9        16 -255.462143
         1        11        13 -6550.633789
         1        20        14 -571.172729
         1        26        10 -9.866788
         1        29         6 -114.301949
         1        34        12 -1811.776123
         6         0 # stress period 49
         1         9        16 -1046.606934
         1        11        13 -379.538513
         1        20        14 -187.742645
         1        26        10 -24.980818
         1        29         6 -796.710327
         1        34        12 -2785.015137
         6         0 # stress period 50
         1         9        16 -59.932434
         1        11        13 -600.666016
         1        20        14 -146.195679
         1        26        10 -34.770462
         1        29         6 -125.826859
         1        34        12 -1315.520386
         6         0 # stress period 51
         1         9        16 -23.505758
         1        11        13 -1874.071289
         1        20        14 -276.178680
         1        26        10 -114.829323
         1        29         6 -16.942392
         1        34        12 -243.411209
         6         0 # stress period 52
         1         9        16 -278.114838
         1        11        13 -726.889587
         1        20        14 -2464.628662
         1        26        10 -369.182861
         1        29         6 -37.274742
         1        34        12 -259.438873
         6         0 # stress period 53
         1         9        16 -157.778824
         1        11        13 -138.151627
         1        20        14 -10417.447266
         1        26        10 -290.301819
         1        29         6 -73.491470
         1        34        12 -1275.702637
         6         0 # stress period 54
         1         9        16 -207.029617
         1        11        13 -264.361572
         1        20        14 -164.427917
         1        26        10 -58.630669
         1        29         6 -27.479521
         1        34        12 -893.102722
         6         0 # stress period 55
         1         9        16 -697.649353
         1        11        13 -398.455719
         1        20        14 -164.838989
         1        26        10 -50.234280
         1        29         6 -21.462814
         1        34        12 -293.503967
         6         0 # stress period 56
         1         9        16 -1178.781128
         1        11        13 -204.908310
         1        20        14 -644.815613
         1        26        10 -110.561745
         1        29         6 -39.622437
         1        34        12 -332.829529
         6         0 # stress period 57
         1         9        16 -17298.378906
         1        11        13 -586.201660
         1        20        14 -299.471527
         1        26        10 -72.269119
         1        29         6 -92.236908
         1        34        12 -386.351593
         6         0 # stress period 58
         1         9        16 -10188.687500
         1        11        13 -142.911713
         1        20        14 -2056.036133
         1        26        10 -205.976685
         1        29         6 -307.519684
         1        34        12 -423.039490
         6         0 # stress period 59
         1         9        16 -475.177216
         1        11        13 -273.456573
         1        20        14 -3012.355957
         1        26        10 -884.890625
         1        29         6 -311.527924
         1        34        12 -1359.200073
         6         0 # stress period 60
         1         9        16 -376.015747
         1        11        13 -863.595093
         1        20        14 -376.940308
         1        26        10 -1540.174805
         1        29         6 -1065.378418
         1        34        12 -195.671432
         6         0 # stress period 61
         1         9        16 -1132.557129
         1        11        13 -387.954651
         1        20        14 -99.037933
         1        26        10 -217.683304
         1        29         6 -82.454071
         1        34        12 -110.199585
         6         0 # stress period 62
         1         9        16 -1395.338135
         1        11        13 -313.251373
         1        20        14 -363.678314
         1        26        10 -111.293861
         1        29         6 -45.508457
         1        34        12 -739.172119
         6         0 # stress period 63
         1         9        16 -3169.720459
         1        11        13 -448.500031
         1        20        14 -339.134613
         1        26        10 -290.095825
         1        29         6 -265.367889
         1        34        12 -935.070862
         6         0 # stress period 64
         1         9        16 -6171.862305
         1        11        13 -608.625183
         1        20        14 -1350.581543
         1        26        10 -71.678017
         1        29         6 -116.083771
         1        34        12 -1934.875366
         6         0 # stress period 65
         1         9        16 -382.482819
         1        11        13 -475.958679
         1        20        14 -9761.893555
         1        26        10 -33.112442
         1        29         6 -26.148638
         1        34        12 -748.787537
         6         0 # stress period 66
         1         9        16 -62.531662
         1        11        13 -274.559631
         1        20        14 -1135.368652
         1        26        10 -136.635712
         1        29         6 -7.543715
         1        34        12 -565.954346
         6         0 # stress period 67
         1         9        16 -464.897034
         1        11        13 -542.151184
         1        20        14 -458.855865
         1        26        10 -19.094215
         1        29         6 -24.414791
         1        34        12 -934.357300
         6         0 # stress period 68
         1         9        16 -206.275040
         1        11        13 -1694.063232
         1        20        14 -673.770142
         1        26        10 -1.507383
         1        29         6 -54.677601
         1        34        12 -227.988922
         6         0 # stress period 69
         1         9        16 -24.884760
         1        11        13 -4898.934570
         1        20        14 -252.122101
         1        26        10 -14.973360
         1        29         6 -55.630611
         1        34        12 -214.279678
         6         0 # stress period 70
         1         9        16 -374.102051
         1        11        13 -2213.197754
         1        20        14 -70.180420
         1        26        10 -67.270287
         1        29         6 -40.363609
         1        34        12 -695.681152
         6         0 # stress period 71
         1         9        16 -179.434845
         1        11        13 -342.958801
         1        20        14 -410.924896
         1        26        10 -33.969368
         1        29         6 -44.443295
         1        34        12 -1585.752808
         6         0 # stress period 72
         1         9        16 -125.071953
         1        11        13 -66.384964
         1        20        14 -902.852783
         1        26        10 -57.069378
         1        29         6 -21.062586
         1        34        12 -1122.744019
         6         0 # stress period 73
         1         9        16 -1328.522461
         1        11        13 -6.150826
         1        20        14 -718.906921
         1        26        10 -16.539690
         1        29         6 -14.638762
         1        34        12 -175.964905
         6         0 # stress period 74
         1         9        16 -1443.810425
         1        11        13 -86.074188
         1        20        14 -571.915710
         1        26        10 -13.246139
         1        29         6 -41.811695
         1        34        12 -195.819382
         6         0 # stress period 75
         1         9        16 -532.714783
         1        11        13 -1105.057007
         1        20        14 -147.913910
         1        26        10 -70.618790
         1        29         6 -252.304718
         1        34        12 -466.402771
         6         0 # stress period 76
         1         9        16 -249.797073
         1        11        13 -951.033691
         1        20        14 -140.312576
         1        26        10 -61.764839
         1        29         6 -150.052292
         1        34        12 -264.092102
         6         0 # stress period 77
         1         9        16 -651.272766
         1        11        13 -743.727539
         1        20        14 -230.839966
         1        26        10 -285.898712
         1        29         6 -65.484703
         1        34        12 -265.162628
         6         0 # stress period 78
         1         9        16 -846.477295
         1        11        13 -324.246063
         1        20        14 -291.891357
         1        26        10 -103.411797
         1        29         6 -294.546173
         1        34        12 -497.955231
         6         0 # stress period 79
         1         9        16 -391.856537
         1        11        13 -262.137604
         1        20        14 -343.366455
         1        26        10 -9.617092
         1        29         6 -183.115326
         1        34        12 -939.445007
         6         0 # stress period 80
         1         9        16 -330.235931
         1        11        13 -200.174667
         1        20        14 -188.684265
         1        26        10 -24.203474
         1        29         6 -80.140068
         1        34        12 -508.010437
         6         0 # stress period 81
         1         9        16 -1136.186401
         1        11        13 -1941.862061
         1        20        14 -131.484100
         1        26        10 -22.162933
         1        29         6 -135.466354
         1        34        12 -367.047974
         6         0 # stress period 82
         1         9        16 -324.686768
         1        11        13 -9064.899414
         1        20        14 -272.302582
         1        26        10 -43.583626
         1        29         6 -60.200668
         1        34        12 -366.589142
         6         0 # stress period 83
         1         9        16 -333.076172
         1        11        13 -2702.171875
         1        20        14 -952.733459
         1        26        10 -142.689285
         1        29         6 -69.260094
         1        34        12 -170.796890
         6         0 # stress period 84
         1         9        16 -2007.322388
         1        11        13 -363.740448
         1        20        14 -547.992676
         1        26        10 -132.181992
         1        29         6 -203.107651
         1        34        12 -105.058884
         6         0 # stress period 85
         1         9        16 -187.063416
         1        11        13 -250.325363
         1        20        14 -604.235718
         1        26        10 -216.972458
         1        29         6 -34.078312
         1        34        12 -17.753387
         6         0 # stress period 86
         1         9        16 -315.150787
         1        11        13 -497.657990
         1        20        14 -318.987518
         1        26        10 -142.080673
         1        29         6 -10.813294
         1        34        12 -34.480244
         6         0 # stress period 87
         1         9        16 -455.188080
         1        11        13 -379.489197
         1        20        14 -79.794258
         1        26        10 -39.779942
         1        29         6 -24.222681
         1        34        12 -388.835266
         6         0 # stress period 88
         1         9        16 -76.928818
         1        11        13 -402.590881
         1        20        14 -486.084808
         1        26        10 -210.039383
         1        29         6 -26.217854
         1        34        12 -71.252151
         6         0 # stress period 89
         1         9        16 -187.455322
         1        11        13 -69.822182
         1        20        14 -302.576447
         1        26        10 -177.368362
         1        29         6 -5.913702
         1        34        12 -201.373047
         6         0 # stress period 90
         1         9        16 -285.399109
         1        11        13 -91.347855
         1        20        14 -118.001495
         1        26        10 -81.121033
         1        29         6 -13.641679
         1        34        12 -3514.291992
         6         0 # stress period 91
         1         9        16 -308.949280
         1        11        13 -396.323578
         1        20        14 -722.379150
         1        26        10 -200.966217
         1        29         6 -87.836906
         1        34        12 -644.784973
         6         0 # stress period 92
         1         9        16 -1560.689087
         1        11        13 -224.869476
         1        20        14 -651.153809
         1        26        10 -60.586147
         1        29         6 -193.527374
         1        34        12 -365.998413
         6         0 # stress period 93
         1         9        16 -2644.913818
         1        11        13 -161.607422
         1        20        14 -343.515320
         1        26        10 -86.136513
         1        29         6 -79.530037
         1        34        12 -317.241425
         6         0 # stress period 94
         1         9        16 -3189.052979
         1        11        13 -1086.374634
         1        20        14 -233.801239
         1        26        10 -309.897919
         1        29         6 -142.275818
         1        34        12 -136.246246
         6         0 # stress period 95
         1         9        16 -2813.264893
         1        11        13 -1276.854004
         1        20        14 -272.174957
         1        26        10 -16.325708
         1        29         6 -515.258545
         1        34        12 -41.791985
         6         0 # stress period 96
         1         9        16 -2137.101074
         1        11        13 -779.246948
         1        20        14 -168.387177
         1        26        10 -4.140985
         1        29         6 -41.810223
         1        34        12 -182.461868
         6         0 # stress period 97
         1         9        16 -3731.407959
         1        11        13 -396.620911
         1        20        14 -24.901180
         1        26        10 -114.717468
         1        29         6 -41.154381
         1        34        12 -1431.925415
         6         0 # stress period 98
         1         9        16 -849.125122
         1        11        13 -126.666641
         1        20        14 -152.273697
         1        26        10 -62.458080
         1        29         6 -385.153015
         1        34        12 -154.068481
         6         0 # stress period 99
         1         9        16 -1098.854004
         1        11        13 -41.702011
         1        20        14 -753.572205
         1        26        10 -14.032244
         1        29         6 -9.352399
         1        34        12 -165.852234
         6         0 # stress period 100
         1         9        16 -4310.788086
         1        11        13 -24.572073
         1        20        14 -144.944870
         1        26        10 -74.341965