# DRN for MODFLOW, generated by Flopy.
        40         0
        40         0 # stress period 0
         1         1        15 20.000000 12063.633789
         1         2        15 19.750000 11924.638672
         1         3        15 19.500000 5852.152832
         1         4        15 19.250000 5001.573730
         1         5        15 19.000000 10395.144531
         1         6        15 18.750000 8273.499023
         1         7        15 18.500000 7074.004395
         1         8        15 18.250000 8681.734375
         1         9        15 18.000000 6668.610352
         1        10        15 17.750000 5999.366211
         1        11        15 17.500000 10211.176758
         1        12        15 17.250000 10584.836914
         1        13        15 17.000000 3907.496338
         1        14        15 16.750000 2813.320068
         1        15        15 16.500000 3224.516357
         1        16        15 16.250000 2882.482178
         1        17        15 16.000000 3598.668457
         1        18        15 15.750000 3564.407227
         1        19        15 15.500000 6252.800293
         1        20        15 15.250000 6519.108398
         1        21        15 15.000000 3854.994629
         1        22        15 14.750000 4770.785156
         1        23        15 14.500000 5404.914551
         1        24        15 14.250000 8902.941406
         1        25        15 14.000000 7614.710938
         1        26        15 13.750000 5102.356445
         1        27        15 13.500000 3922.967773
         1        28        15 13.250000 5105.598145
         1        29        15 13.000000 5455.610352
         1        30        15 12.750000 4913.761719
         1        31        15 12.500000 9716.073242
         1        32        15 12.250000 11093.863281
         1        33        15 12.000000 7006.224121
         1        34        15 11.750000 4825.749512
         1        35        15 11.500000 4681.630859
         1        36        15 11.250000 9638.473633
         1        37        15 11.000000 11640.531250
         1        38        15 10.750000 3285.719971
         1        39        15 10.500000 1997.604614
         1        40        15 10.250000 3121.557617
        40         0 # stress period 1
         1         1        15 20.000000 12063.633789
         1         2        15 19.750000 11924.638672
         1         3        15 19.500000 5852.152832
         1         4        15 19.250000 5001.573730
         1         5        15 19.000000 10395.144531
         1         6        15 18.750000 8273.499023
         1         7        15 18.500000 7074.004395
         1         8        15 18.250000 8681.734375
         1         9        15 18.000000 6668.610352
         1        10        15 17.750000 5999.366211
         1        11        15 17.500000 10211.176758
         1        12        15 17.250000 10584.836914
         1        13        15 17.000000 3907.496338
         1        14        15 16.750000 2813.320068
         1        15        15 16.500000 3224.516357
         1        16        15 16.250000 2882.482178
         1        17        15 16.000000 3598.668457
         1        18        15 15.750000 3564.407227
         1        19        15 15.500000 6252.800293
         1        20        15 15.250000 6519.108398
         1        21        15 15.000000 3854.994629
         1        22        15 14.750000 4770.785156
         1        23        15 14.500000 5404.914551
         1        24        15 14.250000 8902.941406
         1        25        15 14.000000 7614.710938
         1        26        15 13.750000 5102.356445
         1        27        15 13.500000 3922.967773
         1        28        15 13.250000 5105.598145
         1        29        15 13.000000 5455.610352
         1        30        15 12.750000 4913.761719
         1        31        15 12.500000 9716.073242
         1        32        15 12.250000 11093.863281
         1        33        15 12.000000 7006.224121
         1        34        15 11.750000 4825.749512
         1        35        15 11.500000 4681.630859
         1        36        15 11.250000 9638.473633
         1        37        15 11.000000 11640.531250
         1        38        15 10.750000 3285.719971
         1        39        15 10.500000 1997.604614
         1        40        15 10.250000 3121.557617
        40         0 # stress period 2
         1         1        15 20.000000 12063.633789
         1         2        15 19.750000 11924.638672
         1         3        15 19.500000 5852.152832
         1         4        15 19.250000 5001.573730
         1         5        15 19.000000 10395.144531
         1         6        15 18.750000 8273.499023
         1         7        15 18.500000 7074.004395
         1         8        15 18.250000 8681.734375
         1         9        15 18.000000 6668.610352
         1        10        15 17.750000 5999.366211
         1        11        15 17.500000 10211.176758
         1        12        15 17.250000 10584.836914
         1        13        15 17.000000 3907.496338
         1        14        15 16.750000 2813.320068
         1        15        15 16.500000 3224.516357
         1        16        15 16.250000 2882.482178
         1        17        15 16.000000 3598.668457
         1        18        15 15.750000 3564.407227
         1        19        15 15.500000 6252.800293
         1        20        15 15.250000 6519.108398
         1        21        15 15.000000 3854.994629
         1        22        15 14.750000 4770.785156
         1        23        15 14.500000 5404.914551
         1        24        15 14.250000 8902.941406
         1        25        15 14.000000 7614.710938
         1        26        15 13.750000 5102.356445
         1        27        15 13.500000 3922.967773
         1        28        15 13.250000 5105.598145
         1        29        15 13.000000 5455.610352
         1        30        15 12.750000 4913.761719
         1        31        15 12.500000 9716.073242
         1        32        15 12.250000 11093.863281
         1        33        15 12.000000 7006.224121
         1        34        15 11.750000 4825.749512
         1        35        15 11.500000 4681.630859
         1        36        15 11.250000 9638.473633
         1        37        15 11.000000 11640.531250
         1        38        15 10.750000 3285.719971
         1        39        15 10.500000 1997.604614
         1        40        15 10.250000 3121.557617
        40         0 # stress period 3
         1         1        15 20.000000 12063.633789
         1         2        15 19.750000 11924.638672
         1         3        15 19.500000 5852.152832
         1         4        15 19.250000 5001.573730
         1         5        15 19.000000 10395.144531
         1         6        15 18.750000 8273.499023
         1         7        15 18.500000 7074.004395
         1         8        15 18.250000 8681.734375
         1         9        15 18.000000 6668.610352
         1        10        15 17.750000 5999.366211
         1        11        15 17.500000 10211.176758
         1        12        15 17.250000 10584.836914
         1        13        15 17.000000 3907.496338
         1        14        15 16.750000 2813.320068
         1        15        15 16.500000 3224.516357
         1        16        15 16.250000 2882.482178
         1        17        15 16.000000 3598.668457
         1        18        15 15.750000 3564.407227
         1        19        15 15.500000 6252.800293
         1        20        15 15.250000 6519.108398
         1        21        15 15.000000 3854.994629
         1        22        15 14.750000 4770.785156
         1        23        15 14.500000 5404.914551
         1        24        15 14.250000 8902.941406
         1        25        15 14.000000 7614.710938
         1        26        15 13.750000 5102.356445
         1        27        15 13.500000 3922.967773
         1        28        15 13.250000 5105.598145
         1        29        15 13.000000 5455.610352
         1        30        15 12.750000 4913.761719
         1        31        15 12.500000 9716.073242
         1        32        15 12.250000 11093.863281
         1        33        15 12.000000 7006.224121
         1        34        15 11.750000 4825.749512
         1        35        15 11.500000 4681.630859
         1        36        15 11.250000 9638.473633
         1        37        15 11.000000 11640.531250
         1        38        15 10.750000 3285.719971
         1        39        15 10.500000 1997.604614
         1        40        15 10.250000 3121.557617
        40         0 # stress period 4
         1         1        15 20.000000 12063.633789
         1         2        15 19.750000 11924.638672
         1         3        15 19.500000 5852.152832
         1         4        15 19.250000 5001.573730
         1         5        15 19.000000 10395.144531
         1         6        15 18.750000 8273.499023
         1         7        15 18.500000 7074.004395
         1         8        15 18.250000 8681.734375
         1         9        15 18.000000 6668.610352
         1        10        15 17.750000 5999.366211
         1        11        15 17.500000 10211.176758
         1        12        15 17.250000 10584.836914
         1        13        15 17.000000 3907.496338
         1        14        15 16.750000 2813.320068
         1        15        15 16.500000 3224.516357
         1        16        15 16.250000 2882.482178
         1        17        15 16.000000 3598.668457
         1        18        15 15.750000 3564.407227
         1        19        15 15.500000 6252.800293
         1        20        15 15.250000 6519.108398
         1        21        15 15.000000 3854.994629
         1        22        15 14.750000 4770.785156
         1        23        15 14.500000 5404.914551
         1        24        15 14.250000 8902.941406
         1        25        15 14.000000 7614.710938
         1        26        15 13.750000 5102.356445
         1        27        15 13.500000 3922.967773
         1        28        15 13.250000 5105.598145
         1        29        15 13.000000 5455.610352
         1        30        15 12.750000 4913.761719
         1        31        15 12.500000 9716.073242
         1        32        15 12.250000 11093.863281
         1        33        15 12.000000 7006.224121
         1        34        15 11.750000 4825.749512
         1        35        15 11.500000 4681.630859
         1        36        15 11.250000 9638.473633
         1        37        15 11.000000 11640.531250
         1        38        15 10.750000 3285.719971
         1        39        15 10.500000 1997.604614
         1        40        15 10.250000 3121.557617
        40         0 # stress period 5
         1         1        15 20.000000 12063.633789
         1         2        15 19.750000 11924.638672
         1         3        15 19.500000 5852.152832
         1         4        15 19.250000 5001.573730
         1         5        15 19.000000 10395.144531
         1         6        15 18.750000 8273.499023
         1         7        15 18.500000 7074.004395
         1         8        15 18.250000 8681.734375
         1         9        15 18.000000 6668.610352
         1        10        15 17.750000 5999.366211
         1        11        15 17.500000 10211.176758
         1        12        15 17.250000 10584.836914
         1        13        15 17.000000 3907.496338
         1        14        15 16.750000 2813.320068
         1        15        15 16.500000 3224.516357
         1        16        15 16.250000 2882.482178
         1        17        15 16.000000 3598.668457
         1        18        15 15.750000 3564.407227
         1        19        15 15.500000 6252.800293
         1        20        15 15.250000 6519.108398
         1        21        15 15.000000 3854.994629
         1        22        15 14.750000 4770.785156
         1        23        15 14.500000 5404.914551
         1        24        15 14.250000 8902.941406
         1        25        15 14.000000 7614.710938
         1        26        15 13.750000 5102.356445
         1        27        15 13.500000 3922.967773
         1        28        15 13.250000 5105.598145
         1        29        15 13.000000 5455.610352
         1        30        15 12.750000 4913.761719
         1        31        15 12.500000 9716.073242
         1        32        15 12.250000 11093.863281
         1        33        15 12.000000 7006.224121
         1        34        15 11.750000 4825.749512
         1        35        15 11.500000 4681.630859
         1        36        15 11.250000 9638.473633
         1        37        15 11.000000 11640.531250
         1        38        15 10.750000 3285.719971
         1        39        15 10.500000 1997.604614
         1        40        15 10.250000 3121.557617
        40         0 # stress period 6
         1         1        15 20.000000 12063.633789
         1         2        15 19.750000 11924.638672
         1         3        15 19.500000 5852.152832
         1         4        15 19.250000 5001.573730
         1         5        15 19.000000 10395.144531
         1         6        15 18.750000 8273.499023
         1         7        15 18.500000 7074.004395
         1         8        15 18.250000 8681.734375
         1         9        15 18.000000 6668.610352
         1        10        15 17.750000 5999.366211
         1        11        15 17.500000 10211.176758
         1        12        15 17.250000 10584.836914
         1        13        15 17.000000 3907.496338
         1        14        15 16.750000 2813.320068
         1        15        15 16.500000 3224.516357
         1        16        15 16.250000 2882.482178
         1        17        15 16.000000 3598.668457
         1        18        15 15.750000 3564.407227
         1        19        15 15.500000 6252.800293
         1        20        15 15.250000 6519.108398
         1        21        15 15.000000 3854.994629
         1        22        15 14.750000 4770.785156
         1        23        15 14.500000 5404.914551
         1        24        15 14.250000 8902.941406
         1        25        15 14.000000 7614.710938
         1        26        15 13.750000 5102.356445
         1        27        15 13.500000 3922.967773
         1        28        15 13.250000 5105.598145
         1        29        15 13.000000 5455.610352
         1        30        15 12.750000 4913.761719
         1        31        15 12.500000 9716.073242
         1        32        15 12.250000 11093.863281
         1        33        15 12.000000 7006.224121
         1        34        15 11.750000 4825.749512
         1        35        15 11.500000 4681.630859
         1        36        15 11.250000 9638.473633
         1        37        15 11.000000 11640.531250
         1        38        15 10.750000 3285.719971
         1        39        15 10.500000 1997.604614
         1        40        15 10.250000 3121.557617
        40         0 # stress period 7
         1         1        15 20.000000 12063.633789
         1         2        15 19.750000 11924.638672
         1         3        15 19.500000 5852.152832
         1         4        15 19.250000 5001.573730
         1         5        15 19.000000 10395.144531
         1         6        15 18.750000 8273.499023
         1         7        15 18.500000 7074.004395
         1         8        15 18.250000 8681.734375
         1         9        15 18.000000 6668.610352
         1        10        15 17.750000 5999.366211
         1        11        15 17.500000 10211.176758
         1        12        15 17.250000 10584.836914
         1        13        15 17.000000 3907.496338
         1        14        15 16.750000 2813.320068
         1        15        15 16.500000 3224.516357
         1        16        15 16.250000 2882.482178
         1        17        15 16.000000 3598.668457
         1        18        15 15.750000 3564.407227
         1        19        15 15.500000 6252.800293
         1        20        15 15.250000 6519.108398
         1        21        15 15.000000 3854.994629
         1        22        15 14.750000 4770.785156
         1        23        15 14.500000 5404.914551
         1        24        15 14.250000 8902.941406
         1        25        15 14.000000 7614.710938
         1        26        15 13.750000 5102.356445
         1        27        15 13.500000 3922.967773
         1        28        15 13.250000 5105.598145
         1        29        15 13.000000 5455.610352
         1        30        15 12.750000 4913.761719
         1        31        15 12.500000 9716.073242
         1        32        15 12.250000 11093.863281
         1        33        15 12.000000 7006.224121
         1        34        15 11.750000 4825.749512
         1        35        15 11.500000 4681.630859
         1        36        15 11.250000 9638.473633
         1        37        15 11.000000 11640.531250
         1        38        15 10.750000 3285.719971
         1        39        15 10.500000 1997.604614
         1        40        15 10.250000 3121.557617
        40         0 # stress period 8
         1         1        15 20.000000 12063.633789
         1         2        15 19.750000 11924.638672
         1         3        15 19.500000 5852.152832
         1         4        15 19.250000 5001.573730
         1         5        15 19.000000 10395.144531
         1         6        15 18.750000 8273.499023
         1         7        15 18.500000 7074.004395
         1         8        15 18.250000 8681.734375
         1         9        15 18.000000 6668.610352
         1        10        15 17.750000 5999.366211
         1        11        15 17.500000 10211.176758
         1        12        15 17.250000 10584.836914
         1        13        15 17.000000 3907.496338
         1        14        15 16.750000 2813.320068
         1        15        15 16.500000 3224.516357
         1        16        15 16.250000 2882.482178
         1        17        15 16.000000 3598.668457
         1        18        15 15.750000 3564.407227
         1        19        15 15.500000 6252.800293
         1        20        15 15.250000 6519.108398
         1        21        15 15.000000 3854.994629
         1        22        15 14.750000 4770.785156
         1        23        15 14.500000 5404.914551
         1        24        15 14.250000 8902.941406
         1        25        15 14.000000 7614.710938
         1        26        15 13.750000 5102.356445
         1        27        15 13.500000 3922.967773
         1        28        15 13.250000 5105.598145
         1        29        15 13.000000 5455.610352
         1        30        15 12.750000 4913.761719
         1        31        15 12.500000 9716.073242
         1        32        15 12.250000 11093.863281
         1        33        15 12.000000 7006.224121
         1        34        15 11.750000 4825.749512
         1        35        15 11.500000 4681.630859
         1        36        15 11.250000 9638.473633
         1        37        15 11.000000 11640.531250
         1        38        15 10.750000 3285.719971
         1        39        15 10.500000 1997.604614
         1        40        15 10.250000 3121.557617
        40         0 # stress period 9
         1         1        15 20.000000 12063.633789
         1         2        15 19.750000 11924.638672
         1         3        15 19.500000 5852.152832
         1         4        15 19.250000 5001.573730
         1         5        15 19.000000 10395.144531
         1         6        15 18.750000 8273.499023
         1         7        15 18.500000 7074.004395
         1         8        15 18.250000 8681.734375
         1         9        15 18.000000 6668.610352
         1        10        15 17.750000 5999.366211
         1        11        15 17.500000 10211.176758
         1        12        15 17.250000 10584.836914
         1        13        15 17.000000 3907.496338
         1        14        15 16.750000 2813.320068
         1        15        15 16.500000 3224.516357
         1        16        15 16.250000 2882.482178
         1        17        15 16.000000 3598.668457
         1        18        15 15.750000 3564.407227
         1        19        15 15.500000 6252.800293
         1        20        15 15.250000 6519.108398
         1        21        15 15.000000 3854.994629
         1        22        15 14.750000 4770.785156
         1        23        15 14.500000 5404.914551
         1        24        15 14.250000 8902.941406
         1        25        15 14.000000 7614.710938
         1        26        15 13.750000 5102.356445
         1        27        15 13.500000 3922.967773
         1        28        15 13.250000 5105.598145
         1        29        15 13.000000 5455.610352
         1        30        15 12.750000 4913.761719
         1        31        15 12.500000 9716.073242
         1        32        15 12.250000 11093.863281
         1        33        15 12.000000 7006.224121
         1        34        15 11.750000 4825.749512
         1        35        15 11.500000 4681.630859
         1        36        15 11.250000 9638.473633
         1        37        15 11.000000 11640.531250
         1        38        15 10.750000 3285.719971
         1        39        15 10.500000 1997.604614
         1        40        15 10.250000 3121.557617
        40         0 # stress period 10
         1         1        15 20.000000 12063.633789
         1         2        15 19.750000 11924.638672
         1         3        15 19.500000 5852.152832
         1         4        15 19.250000 5001.573730
         1         5        15 19.000000 10395.144531
         1         6        15 18.750000 8273.499023
         1         7        15 18.500000 7074.004395
         1         8        15 18.250000 8681.734375
         1         9        15 18.000000 6668.610352
         1        10        15 17.750000 5999.366211
         1        11        15 17.500000 10211.176758
         1        12        15 17.250000 10584.836914
         1        13        15 17.000000 3907.496338
         1        14        15 16.750000 2813.320068
         1        15        15 16.500000 3224.516357
         1        16        15 16.250000 2882.482178
         1        17        15 16.000000 3598.668457
         1        18        15 15.750000 3564.407227
         1        19        15 15.500000 6252.800293
         1        20        15 15.250000 6519.108398
         1        21        15 15.000000 3854.994629
         1        22        15 14.750000 4770.785156
         1        23        15 14.500000 5404.914551
         1        24        15 14.250000 8902.941406
         1        25        15 14.000000 7614.710938
         1        26        15 13.750000 5102.356445
         1        27        15 13.500000 3922.967773
         1        28        15 13.250000 5105.598145
         1        29        15 13.000000 5455.610352
         1        30        15 12.750000 4913.761719
         1        31        15 12.500000 9716.073242
         1        32        15 12.250000 11093.863281
         1        33        15 12.000000 7006.224121
         1        34        15 11.750000 4825.749512
         1        35        15 11.500000 4681.630859
         1        36        15 11.250000 9638.473633
         1        37        15 11.000000 11640.531250
         1        38        15 10.750000 3285.719971
         1        39        15 10.500000 1997.604614
         1        40        15 10.250000 3121.557617
        40         0 # stress period 11
         1         1        15 20.000000 12063.633789
         1         2        15 19.750000 11924.638672
         1         3        15 19.500000 5852.152832
         1         4        15 19.250000 5001.573730
         1         5        15 19.000000 10395.144531
         1         6        15 18.750000 8273.499023
         1         7        15 18.500000 7074.004395
         1         8        15 18.250000 8681.734375
         1         9        15 18.000000 6668.610352
         1        10        15 17.750000 5999.366211
         1        11        15 17.500000 10211.176758
         1        12        15 17.250000 10584.836914
         1        13        15 17.000000 3907.496338
         1        14        15 16.750000 2813.320068
         1        15        15 16.500000 3224.516357
         1        16        15 16.250000 2882.482178
         1        17        15 16.000000 3598.668457
         1        18        15 15.750000 3564.407227
         1        19        15 15.500000 6252.800293
         1        20        15 15.250000 6519.108398
         1        21        15 15.000000 3854.994629
         1        22        15 14.750000 4770.785156
         1        23        15 14.500000 5404.914551
         1        24        15 14.250000 8902.941406
         1        25        15 14.000000 7614.710938
         1        26        15 13.750000 5102.356445
         1        27        15 13.500000 3922.967773
         1        28        15 13.250000 5105.598145
         1        29        15 13.000000 5455.610352
         1        30        15 12.750000 4913.761719
         1        31        15 12.500000 9716.073242
         1        32        15 12.250000 11093.863281
         1        33        15 12.000000 7006.224121
         1        34        15 11.750000 4825.749512
         1        35        15 11.500000 4681.630859
         1        36        15 11.250000 9638.473633
         1        37        15 11.000000 11640.531250
         1        38        15 10.750000 3285.719971
         1        39        15 10.500000 1997.604614
         1        40        15 10.250000 3121.557617
        40         0 # stress period 12
         1         1        15 20.000000 12063.633789
         1         2        15 19.750000 11924.638672
         1         3        15 19.500000 5852.152832
         1         4        15 19.250000 5001.573730
         1         5        15 19.000000 10395.144531
         1         6        15 18.750000 8273.499023
         1         7        15 18.500000 7074.004395
         1         8        15 18.250000 8681.734375
         1         9        15 18.000000 6668.610352
         1        10        15 17.750000 5999.366211
         1        11        15 17.500000 10211.176758
         1        12        15 17.250000 10584.836914
         1        13        15 17.000000 3907.496338
         1        14        15 16.750000 2813.320068
         1        15        15 16.500000 3224.516357
         1        16        15 16.250000 2882.482178
         1        17        15 16.000000 3598.668457
         1        18        15 15.750000 3564.407227
         1        19        15 15.500000 6252.800293
         1        20        15 15.250000 6519.108398
         1        21        15 15.000000 3854.994629
         1        22        15 14.750000 4770.785156
         1        23        15 14.500000 5404.914551
         1        24        15 14.250000 8902.941406
         1        25        15 14.000000 7614.710938
         1        26        15 13.750000 5102.356445
         1        27        15 13.500000 3922.967773
         1        28        15 13.250000 5105.598145
         1        29        15 13.000000 5455.610352
         1        30        15 12.750000 4913.761719
         1        31        15 12.500000 9716.073242
         1        32        15 12.250000 11093.863281
         1        33        15 12.000000 7006.224121
         1        34        15 11.750000 4825.749512
         1        35        15 11.500000 4681.630859
         1        36        15 11.250000 9638.473633
         1        37        15 11.000000 11640.531250
         1        38        15 10.750000 3285.719971
         1        39        15 10.500000 1997.604614
         1        40        15 10.250000 3121.557617
        40         0 # stress period 13
         1         1        15 20.000000 12063.633789
         1         2        15 19.750000 11924.638672
         1         3        15 19.500000 5852.152832
         1         4        15 19.250000 5001.573730
         1         5        15 19.000000 10395.144531
         1         6        15 18.750000 8273.499023
         1         7        15 18.500000 7074.004395
         1         8        15 18.250000 8681.734375
         1         9        15 18.000000 6668.610352
         1        10        15 17.750000 5999.366211
         1        11        15 17.500000 10211.176758
         1        12        15 17.250000 10584.836914
         1        13        15 17.000000 3907.496338
         1        14        15 16.750000 2813.320068
         1        15        15 16.500000 3224.516357
         1        16        15 16.250000 2882.482178
         1        17        15 16.000000 3598.668457
         1        18        15 15.750000 3564.407227
         1        19        15 15.500000 6252.800293
         1        20        15 15.250000 6519.108398
         1        21        15 15.000000 3854.994629
         1        22        15 14.750000 4770.785156
         1        23        15 14.500000 5404.914551
         1        24        15 14.250000 8902.941406
         1        25        15 14.000000 7614.710938
         1        26        15 13.750000 5102.356445
         1        27        15 13.500000 3922.967773
         1        28        15 13.250000 5105.598145
         1        29        15 13.000000 5455.610352
         1        30        15 12.750000 4913.761719
         1        31        15 12.500000 9716.073242
         1        32        15 12.250000 11093.863281