# Basic package file for MODFLOW, generated by Flopy.
 FREE
INTERNAL               1    (20I10) -1 #ibound                        
         1         1         1         1         1         1         1         1         1         1         1         1         1         1         1         1         1         1         1         1
         1         1         1         1         1         1         1         1         1         1         1         1         1         1         1         1         1         1         1         1
         1         1         1         1         1         1         1         1         1         1         1         1         1         1         1         1         1         1         1         1
         1         1         1         1         1         1         1         1         1         1         1         1         1         1         1         1         1         1         1         1
         1         1         1         1         1         1         1         1         1         1         1         1         1         1         1         1         1         1         1         1
         1         1         1         1         1         1         1         1         1         1         1         1         1         1         1         1         1         1         1         1
         1         1         1         1         1         1         1         1         1         1         1         1         1         1         1         1         1         1         1         1
         1         1         1         1         1         1         1         1         1         1         1         1         1         1         1         1         1         1         1         1
         1         1         1         1         0         0         0         1         1         1         1         1         1         1         1         1         1         1         1         1
         1         1         1         1         0         0         0         0         1         1         1         1         1         1         1         1         1         1         1         1
         1         1         1         1         0         0         0         0         1         1         1         1         1         1         1         1         1         1         1         1
         1         1         1         1         0         0         0         0         1         1         1         1         1         1         1         1         1         1         1         1
         1         1         1         1         0         0         0         0         1         1         1         1         1         1         1         1         1         1         1         1
         1         1         1         1         0         0         0         0         1         1         1         1         1         1         1         1         1         1         1         1
         1         1         1         1         0         0         0         0         1         1         1         1         1         1         1         1         1         1         1         1
         1         1         1         1         0         0         0         0         1         1         1         1         1         1         1         1         1         1         1         1
         1         1         1         1         0         0         0         0         1         1         1         1         1         1         1         1         1         1         1         1
         1         1         1         1         0         0         0         0         1         1         1         1         1         1         1         1         1         1         1         1
         1         1         1         1         0         0         0         0         1         1         1         1         1         1         1         1         1         1         1         1
         1         1         1         1         0         0         0         0         1         1         1         1         1         1         1         1         1         1         1         1
         1         1         1         1         0         0         0         0         1         1         1         1         1         1         1         1         1         1         1         1
         1         1         1         1         0         0         1         1         1         1         1         1         1         1         1         1         1         1         1         1
         1         1         1         1         1         0         1         1         1         1         1         1         1         1         1         1         1         1         1         1
         1         1         1         1         1         1         1         1         1         1         1         1         1         1         1         1         1         1         1         1
         1         1         1         1         1         1         1         1         1         1         1         1         1         1         1         1         1         1         1         1
         1         1         1         1         1         1         1         1         1         1         1         1         1         1         1         1         1         1         1         1
         1         1         1         1         1         1         1         1         1         1         1         1         1         1         1         1         1         1         1         1
         1         1         1         1         1         1         1         1         1         1         1         1         1         1         1         1         1         1         1         1
         1         1         1         1         1         1         1         1         1         1         1         1         1         1         1         1         1         1         1         1
         1         1         1         1         1         1         1         1         1         1         1         1         1         1         1         1         1         1         1         1
         1         1         1         1         1         1         1         1         1         1         1         1         1         1         1         1         1         1         1         1
         1         1         1         1         1         1         1         1         1         1         1         1         1         1         1         1         1         1         1         1
         0         1         1         1         1         1         1         1         1         1         1         1         1         1         1         1         1         1         1         1
         0         0         1         1         1         1         1         1         1         1         1         1         1         1         1         1         1         1         1         1
         0         0         0         1         1         1         1         1         1         1         1         1         1         1         1         1         1         1         1         1
         0         0         0         0         1         1         1         1         1         1         1         1         1         1         1         1         1         1         1         0
         0         0         0         0         1         1         1         1         1         1         1         1         1         1         1         1         1         1         1         0
         0         0         0         0         0         1         1         1         1         1         1         1         1         1         1         1         1         1         0         0
         0         0         0         0         0         1         1         1         1         1         1         1         1         1         1         1         1         0         0         0
         0         0         0         0         0        -1        -1        -1        -1        -1        -1        -1        -1        -1        -1         0         0         0         0         0
INTERNAL               1    (20I10) -1 #ibound                        
         1         1         1         1         1         1         1         1         1         1         1         1         1         1         1         1         1         1         1         1
         1         1         1         1         1         1         1         1         1         1         1         1         1         1         1         1         1         1         1         1
         1         1         1         1         1         1         1         1         1         1         1         1         1         1         1         1         1         1         1         1
         1         1         1         1         1         1         1         1         1         1         1         1         1         1         1         1         1         1         1         1
         1         1         1         1         1         1         1         1         1         1         1         1         1         1         1         1         1         1         1         1
         1         1         1         1         1         1         1         1         1         1         1         1         1         1         1         1         1         1         1         1
         1         1         1         1         1         1         1         1         1         1         1         1         1         1         1         1         1         1         1         1
         1         1         1         1         1         1         1         1         1         1         1         1         1         1         1         1         1         1         1         1
         1         1         1         1         0         0         0         1         1         1         1         1         1         1         1         1         1         1         1         1
         1         1         1         1         0         0         0         0         1         1         1         1         1         1         1         1         1         1         1         1
         1         1         1         1         0         0         0         0         1         1         1         1         1         1         1         1         1         1         1         1
         1         1         1         1         0         0         0         0         1         1         1         1         1         1         1         1         1         1         1         1
         1         1         1         1         0         0         0         0         1         1         1         1         1         1         1         1         1         1         1         1
         1         1         1         1         0         0         0         0         1         1         1         1         1         1         1         1         1         1         1         1
         1         1         1         1         0         0         0         0         1         1         1         1         1         1         1         1         1         1         1         1
         1         1         1         1         0         0         0         0         1         1         1         1         1         1         1         1         1         1         1         1
         1         1         1         1         0         0         0         0         1         1         1         1         1         1         1         1         1         1         1         1
         1         1         1         1         0         0         0         0         1         1         1         1         1         1         1         1         1         1         1         1
         1         1         1         1         0         0         0         0         1         1         1         1         1         1         1         1         1         1         1         1
         1         1         1         1         0         0         0         0         1         1         1         1         1         1         1         1         1         1         1         1
         1         1         1         1         0         0         0         0         1         1         1         1         1         1         1         1         1         1         1         1
         1         1         1         1         0         0         1         1         1         1         1         1         1         1         1         1         1         1         1         1
         1         1         1         1         1         0         1         1         1         1         1         1         1         1         1         1         1         1         1         1
         1         1         1         1         1         1         1         1         1         1         1         1         1         1         1         1         1         1         1         1
         1         1         1         1         1         1         1         1         1         1         1         1         1         1         1         1         1         1         1         1
         1         1         1         1         1         1         1         1         1         1         1         1         1         1         1         1         1         1         1         1
         1         1         1         1         1         1         1         1         1         1         1         1         1         1         1         1         1         1         1         1
         1         1         1         1         1         1         1         1         1         1         1         1         1         1         1         1         1         1         1         1
         1         1         1         1         1         1         1         1         1         1         1         1         1         1         1         1         1         1         1         1
         1         1         1         1         1         1         1         1         1         1         1         1         1         1         1         1         1         1         1         1
         1         1         1         1         1         1         1         1         1         1         1         1         1         1         1         1         1         1         1         1
         1         1         1         1         1         1         1         1         1         1         1         1         1         1         1         1         1         1         1         1
         0         1         1         1         1         1         1         1         1         1         1         1         1         1         1         1         1         1         1         1
         0         0         1         1         1         1         1         1         1         1         1         1         1         1         1         1         1         1         1         1
         0         0         0         1         1         1         1         1         1         1         1         1         1         1         1         1         1         1         1         1
         0         0         0         0         1         1         1         1         1         1         1         1         1         1         1         1         1         1         1         0
         0         0         0         0         1         1         1         1         1         1         1         1         1         1         1         1         1         1         1         0
         0         0         0         0         0         1         1         1         1         1         1         1         1         1         1         1         1         1         0         0
         0         0         0         0         0         1         1         1         1         1         1         1         1         1         1         1         1         0         0         0
         0         0         0         0         0        -1        -1        -1        -1        -1        -1        -1        -1        -1        -1         0         0         0         0         0
INTERNAL               1    (20I10) -1 #ibound                        
         1         1         1         1         1         1         1         1         1         1         1         1         1         1         1         1         1         1         1         1
         1         1         1         1         1         1         1         1         1         1         1         1         1         1         1         1         1         1         1         1
         1         1         1         1         1         1         1         1         1         1         1         1         1         1         1         1         1         1         1         1
         1         1         1         1         1         1         1         1         1         1         1         1         1         1         1         1         1         1         1         1
         1         1         1         1         1         1         1         1         1         1         1         1         1         1         1         1         1         1         1         1
         1         1         1         1         1         1         1         1         1         1         1         1         1         1         1         1         1         1         1         1
         1         1         1         1         1         1         1         1         1         1         1         1         1         1         1         1         1         1         1         1
         1         1         1         1         1         1         1         1         1         1         1         1         1         1         1         1         1         1         1         1
         1         1         1         1         0         0         0         1         1         1         1         1         1         1         1         1         1         1         1         1
         1         1         1         1         0         0         0         0         1         1         1         1         1         1         1         1         1         1         1         1
         1         1         1         1         0         0         0         0         1         1         1         1         1         1         1         1         1         1         1         1
         1         1         1         1         0         0         0         0         1         1         1         1         1         1         1         1         1         1         1         1
         1         1         1         1         0         0         0         0         1         1         1         1         1         1         1         1         1         1         1         1
         1         1         1         1         0         0         0         0         1         1         1         1         1         1         1         1         1         1         1         1
         1         1         1         1         0         0         0         0         1         1         1         1         1         1         1         1         1         1         1         1
         1         1         1         1         0         0         0         0         1         1         1         1         1         1         1         1         1         1         1         1
         1         1         1         1         0         0         0         0         1         1         1         1         1         1         1         1         1         1         1         1
         1         1         1         1         0         0         0         0         1         1         1         1         1         1         1         1         1         1         1         1
         1         1         1         1         0         0         0         0         1         1         1         1         1         1         1         1         1         1         1         1
         1         1         1         1         0         0         0         0         1         1         1         1         1         1         1         1         1         1         1         1
         1         1         1         1         0         0         0         0         1         1         1         1         1         1         1         1         1         1         1         1
         1         1         1         1         0         0         1         1         1         1         1         1         1         1         1         1         1         1         1         1
         1         1         1         1         1         0         1         1         1         1         1         1         1         1         1         1         1         1         1         1
         1         1         1         1         1         1         1         1         1         1         1         1         1         1         1         1         1         1         1         1
         1         1         1         1         1         1         1         1         1         1         1         1         1         1         1         1         1         1         1         1
         1         1         1         1         1         1         1         1         1         1         1         1         1         1         1         1         1         1         1         1
         1         1         1         1         1         1         1         1         1         1         1         1         1         1         1         1         1         1         1         1
         1         1         1         1         1         1         1         1         1         1         1         1         1         1         1         1         1         1         1         1
         1         1         1         1         1         1         1         1         1         1         1         1         1         1         1         1         1         1         1         1
         1         1         1         1         1         1         1         1         1         1         1         1         1         1         1         1         1         1         1         1
         1         1         1         1         1         1         1         1         1         1         1         1         1         1         1         1         1         1         1         1
         1         1         1         1         1         1         1         1         1         1         1         1         1         1         1         1         1         1         1         1
         0         1         1         1         1         1         1         1         1         1         1         1         1         1         1         1         1         1         1         1
         0         0         1         1         1         1         1         1         1         1         1         1         1         1         1         1         1         1         1         1
         0         0         0         1         1         1         1         1         1         1         1         1         1         1         1         1         1         1         1         1
         0         0         0         0         1         1         1         1         1         1         1         1         1         1         1         1         1         1         1         0
         0         0         0         0         1         1         1         1         1         1         1         1         1         1         1         1         1         1         1         0
         0         0         0         0         0         1         1         1         1         1         1         1         1         1         1         1         1         1         0         0
         0         0         0         0         0         1         1         1         1         1         1         1         1         1         1         1         1         0         0         0
         0         0         0         0         0        -1        -1        -1        -1        -1        -1        -1        -1        -1        -1         0         0         0         0         0
        -999.99
INTERNAL               1  (20E15.6) -1 #strt                          
   1.700800E+01   1.850700E+01   1.867200E+01   1.593000E+01   1.396100E+01   1.446200E+01   8.019000E+00   1.060000E+01   8.884700E+00   7.227400E+00   6.251100E+00   6.006100E+00   7.114300E+00   6.903900E+00   6.244300E+00   6.945000E+00   6.985500E+00   5.031000E+00   4.006100E+00   6.658400E+00
   1.912600E+01   1.734500E+01   1.823400E+01   1.366000E+01   1.326200E+01   1.392200E+01   1.067600E+01   9.916700E+00   1.102500E+01   6.409400E+00   4.878200E+00   5.084300E+00   6.532100E+00   5.177300E+00   5.718100E+00   4.332900E+00   5.886700E+00   6.435600E+00   5.294100E+00   6.050300E+00
   1.748000E+01   1.886000E+01   1.829600E+01   1.298600E+01   1.373800E+01   1.440100E+01   9.202000E+00   1.120800E+01   8.349900E+00   8.574200E+00   5.981000E+00   6.519900E+00   6.245300E+00   5.006600E+00   7.172000E+00   7.163500E+00   4.590800E+00   5.132500E+00   5.052400E+00   6.801100E+00
   1.797000E+01   1.889700E+01   1.931300E+01   1.486200E+01   1.332100E+01   1.576800E+01   1.146600E+01   8.756800E+00   1.232800E+01   7.055000E+00   3.059000E+00   2.824300E+00   2.245100E+00   2.985800E+00   3.190900E+00   2.231900E+00   7.785000E+00   4.955500E+00   6.338900E+00   6.475500E+00
   1.891100E+01   1.804500E+01   1.699500E+01   1.488100E+01   1.521200E+01   1.375400E+01   8.691100E+00   1.463500E+01   1.004500E+01   4.789300E+00   3.168800E+00   2.976200E+00   2.581300E+00   2.968300E+00   2.350700E+00   2.702800E+00   3.505600E+00   6.333500E+00   4.777700E+00   5.406600E+00
   1.599900E+01   1.817800E+01   1.663500E+01   1.373900E+01   1.360200E+01   1.480500E+01   1.518400E+01   1.281500E+01   1.426300E+01   1.067300E+01   3.401400E+00   3.342800E+00   2.925700E+00   3.023800E+00   3.236100E+00   2.694900E+00   2.623200E+00   3.008500E+00   6.056100E+00   6.518400E+00
   1.592700E+01   1.324200E+01   1.520600E+01   1.121300E+01   1.445600E+01   1.163100E+01   1.513400E+01   1.283500E+01   1.400400E+01   8.936400E+00   3.467900E+00   3.381400E+00   2.923600E+00   3.494700E+00   3.571500E+00   3.313100E+00   3.936900E+00   2.715000E+00   4.514800E+00   5.877400E+00
   1.960000E+01   1.454300E+01   1.403300E+01   1.318600E+01   1.534400E+01   1.483000E+01   1.459400E+01   1.550700E+01   1.488800E+01   8.819500E+00   3.463300E+00   3.310500E+00   4.045600E+00   2.815300E+00   2.852900E+00   3.195100E+00   2.615000E+00   4.268900E+00   3.422500E+00   6.745100E+00
   1.847600E+01   1.343300E+01   1.234700E+01   1.574100E+01   0.000000E+00   0.000000E+00   0.000000E+00   1.287500E+01   8.827300E+00   5.108700E+00   4.136800E+00   3.267700E+00   2.883900E+00   3.325800E+00   3.485700E+00   3.211200E+00   3.080600E+00   2.504500E+00   3.516800E+00   5.348900E+00
   1.966500E+01   1.311700E+01   1.552800E+01   1.413100E+01   0.000000E+00   0.000000E+00   0.000000E+00   0.000000E+00   1.039200E+01   6.365200E+00   3.067000E+00   2.661000E+00   3.094200E+00   2.425100E+00   3.501900E+00   2.436800E+00   3.345600E+00   2.542700E+00   3.851500E+00   2.827300E+00
   1.751300E+01   1.475900E+01   1.308300E+01   1.551700E+01   0.000000E+00   0.000000E+00   0.000000E+00   0.000000E+00   1.055100E+01   5.448600E+00   3.134700E+00   3.369800E+00   3.061300E+00   3.055700E+00   3.061300E+00   2.735100E+00   3.022600E+00   2.865600E+00   2.896300E+00   3.613400E+00
   1.228100E+01   1.347600E+01   1.460400E+01   1.449600E+01   0.000000E+00   0.000000E+00   0.000000E+00   0.000000E+00   9.712600E+00   5.261000E+00   2.540600E+00   4.192700E+00   3.072200E+00   3.140700E+00   2.625800E+00   3.242600E+00   3.533400E+00   2.854900E+00   2.582600E+00   3.292500E+00
   1.414200E+01   1.196200E+01   1.389600E+01   1.291300E+01   0.000000E+00   0.000000E+00   0.000000E+00   0.000000E+00   8.603100E+00   5.652200E+00   1.753200E+00   1.652100E+00   1.493200E+00   1.733800E+00   1.646200E+00   1.851300E+00   3.289600E+00   2.661700E+00   3.783800E+00   3.437700E+00
   1.496000E+01   1.366900E+01   1.169900E+01   1.042300E+01   0.000000E+00   0.000000E+00   0.000000E+00   0.000000E+00   9.405600E+00   5.633600E+00   1.626200E+00   1.689600E+00   1.284600E+00   1.543800E+00   1.840200E+00   1.595600E+00   3.710400E+00   3.199300E+00   3.244800E+00   2.746200E+00
   1.285200E+01   1.366100E+01   1.057300E+01   9.033900E+00   0.000000E+00   0.000000E+00   0.000000E+00   0.000000E+00   9.265600E+00   6.600300E+00   1.074800E+00   1.729500E+00   1.454400E+00   1.519800E+00   1.121400E+00   1.675600E+00   4.390900E+00   2.459000E+00   2.008300E+00   3.420600E+00
   1.440300E+01   1.521300E+01   1.040900E+01   9.035500E+00   0.000000E+00   0.000000E+00   0.000000E+00   0.000000E+00   1.011100E+01   3.699200E+00   1.423200E+00   1.749900E+00   1.658100E+00   1.592000E+00   1.610400E+00   1.272500E+00   4.190300E+00   2.912200E+00   3.189100E+00   3.699800E+00
   1.319100E+01   9.304600E+00   9.224100E+00   1.017700E+01   0.000000E+00   0.000000E+00   0.000000E+00   0.000000E+00   8.026200E+00   6.212700E+00   1.376300E+00   1.294300E+00   1.451600E+00   1.307900E+00   1.109200E+00   1.314900E+00   2.943700E+00   3.651600E+00   3.216900E+00   3.241100E+00
   1.375700E+01   9.669700E+00   6.915600E+00   1.009200E+01   0.000000E+00   0.000000E+00   0.000000E+00   0.000000E+00   1.080300E+01   6.446400E+00   1.327300E+00   1.579600E+00   1.121900E+00   1.276900E+00   1.581400E+00   1.465200E+00   1.637000E+00   2.882900E+00   2.403000E+00   2.302500E+00