# Output control package file for MODFLOW, generated by Flopy.
HEAD PRINT FORMAT   0
HEAD SAVE UNIT    51
DRAWDOWN PRINT FORMAT   0
DRAWDOWN SAVE UNIT    52
COMPACT BUDGET AUX

period 1 step 1 
save head
save budget

period 2 step 1 
save head
save budget

period 3 step 1 
save head
save budget

period 4 step 1 
save head
save budget

period 5 step 1 
save head
save budget

period 6 step 1 
save head
save budget

period 7 step 1 
save head
save budget

period 8 step 1 
save head
save budget

period 9 step 1 
save head
save budget

period 10 step 1 
save head
save budget

period 11 step 1 
save head
save budget

period 12 step 1 
save head
save budget

period 13 step 1 
save head
save budget

period 14 step 1 
save head
save budget

period 15 step 1 
save head
save budget

period 16 step 1 
save head
save budget

period 17 step 1 
save head
save budget

period 18 step 1 
save head
save budget

period 19 step 1 
save head
save budget

period 20 step 1 
save head
save budget

period 21 step 1 
save head
save budget

period 22 step 1 
save head
save budget

period 23 step 1 
save head
save budget

period 24 step 1 
save head
save budget

period 25 step 1 
save head
save budget

period 26 step 1 
save head
save budget

period 27 step 1 
save head
save budget

period 28 step 1 
save head
save budget

period 29 step 1 
save head
save budget

period 30 step 1 
save head
save budget

period 31 step 1 
save head
save budget

period 32 step 1 
save head
save budget

period 33 step 1 
save head
save budget

period 34 step 1 
save head
save budget

period 35 step 1 
save head
save budget

period 36 step 1 
save head
save budget

period 37 step 1 
save head
save budget

period 38 step 1 
save head
save budget

period 39 step 1 
save head
save budget

period 40 step 1 
save head
save budget

period 41 step 1 
save head
save budget

period 42 step 1 
save head
save budget

period 43 step 1 
save head
save budget

period 44 step 1 
save head
save budget

period 45 step 1 
save head
save budget

period 46 step 1 
save head
save budget

period 47 step 1 
save head
save budget

period 48 step 1 
save head
save budget

period 49 step 1 
save head
save budget

period 50 step 1 
save head
save budget

period 51 step 1 
save head
save budget

period 52 step 1 
save head
save budget

period 53 step 1 
save head
save budget

period 54 step 1 
save head
save budget

period 55 step 1 
save head
save budget

period 56 step 1 
save head
save budget

period 57 step 1 
save head
save budget

period 58 step 1 
save head
save budget

period 59 step 1 
save head
save budget

period 60 step 1 
save head
save budget

period 61 step 1 
save head
save budget

period 62 step 1 
save head
save budget

period 63 step 1 
save head
save budget

period 64 step 1 
save head
save budget

period 65 step 1 
save head
save budget

period 66 step 1 
save head
save budget

period 67 step 1 
save head
save budget

period 68 step 1 
save head
save budget

period 69 step 1 
save head
save budget

period 70 step 1 
save head
save budget

period 71 step 1 
save head
save budget

period 72 step 1 
save head
save budget

period 73 step 1 
save head
save budget

period 74 step 1 
save head
save budget

period 75 step 1 
save head
save budget

period 76 step 1 
save head
save budget

period 77 step 1 
save head
save budget

period 78 step 1 
save head
save budget

period 79 step 1 
save head
save budget

period 80 step 1 
save head
save budget

period 81 step 1 
save head
save budget

period 82 step 1 
save head
save budget

period 83 step 1 
save head
save budget

period 84 step 1 
save head
save budget

period 85 step 1 
save head
save budget

period 86 step 1 
save head
save budget

period 87 step 1 
save head
save budget

period 88 step 1 
save head
save budget

period 89 step 1 
save head
save budget

period 90 step 1 
save head
save budget

period 91 step 1 
save head
save budget

period 92 step 1 
save head
save budget

period 93 step 1 
save head
save budget

period 94 step 1 
save head
save budget

period 95 step 1 
save head
save budget

period 96 step 1 
save head
save budget

period 97 step 1 
save head
save budget

period 98 step 1 
save head
save budget

period 99 step 1 
save head
save budget

period 100 step 1 
save head
save budget

period 101 step 1 
save head
save budget

period 102 step 1 
save head
save budget

period 103 step 1 
save head
save budget

period 104 step 1 
save head
save budget

period 105 step 1 
save head
save budget

period 106 step 1 
save head
save budget

period 107 step 1 
save head
save budget

period 108 step 1 
save head
save budget

period 109 step 1 
save head
save budget

period 110 step 1 
save head
save budget

period 111 step 1 
save head
save budget

period 112 step 1 
save head
save budget

period 113 step 1 
save head
save budget

period 114 step 1 
save head
save budget

period 115 step 1 
save head
save budget

period 116 step 1 
save head
save budget

period 117 step 1 
save head
save budget

period 118 step 1 
save head
save budget

period 119 step 1 
save head
save budget

period 120 step 1 
save head
save budget

period 121 step 1 
save head
save budget

period 122 step 1 
save head
save budget

period 123 step 1 
save head
save budget

period 124 step 1 
save head
save budget

period 125 step 1 
save head
save budget

period 126 step 1 
save head
save budget

period 127 step 1 
save head
save budget

period 128 step 1 
save head
save budget

period 129 step 1 
save head
save budget

period 130 step 1 
save head
save budget

period 131 step 1 
save head
save budget

period 132 step 1 
save head
save budget

period 133 step 1 
save head
save budget

period 134 step 1 
save head
save budget

period 135 step 1 
save head
save budget

period 136 step 1 
save head
save budget

period 137 step 1 
save head
save budget

period 138 step 1 
save head
save budget

period 139 step 1 
save head
save budget

period 140 step 1 
save head
save budget

period 141 step 1 
save head
save budget

period 142 step 1 
save head
save budget

period 143 step 1 
save head
save budget

period 144 step 1 
save head
save budget

period 145 step 1 
save head
save budget

period 146 step 1 
save head
save budget

period 147 step 1 
save head
save budget

period 148 step 1 
save head
save budget

period 149 step 1 
save head
save budget

period 150 step 1 
save head
save budget

period 151 step 1 
save head
save budget

period 152 step 1 
save head
save budget

period 153 step 1 
save head
save budget

period 154 step 1 
save head
save budget

period 155 step 1 
save head
save budget

period 156 step 1 
save head
save budget

period 157 step 1 
save head
save budget

period 158 step 1 
save head
save budget

period 159 step 1 
save head
save budget

period 160 step 1 
save head
save budget

period 161 step 1 
save head
save budget

period 162 step 1 
save head
save budget

period 163 step 1 
save head
save budget

period 164 step 1 
save head
save budget

period 165 step 1 
save head
save budget

period 166 step 1 
save head
save budget

period 167 step 1 
save head
save budget

period 168 step 1 
save head
save budget

period 169 step 1 
save head
save budget

period 170 step 1 
save head
save budget

period 171 step 1 
save head
save budget

period 172 step 1 
save head
save budget

period 173 step 1 
save head
save budget

period 174 step 1 
save head
save budget

period 175 step 1 
save head
save budget

period 176 step 1 
save head
save budget

period 177 step 1 
save head
save budget

period 178 step 1 
save head
save budget

period 179 step 1 
save head
save budget

period 180 step 1 
save head
save budget

period 181 step 1 
save head
save budget

period 182 step 1 
save head
save budget

period 183 step 1 
save head
save budget

period 184 step 1 
save head
save budget

period 185 step 1 
save head
save budget

period 186 step 1 
save head
save budget

period 187 step 1 
save head
save budget

period 188 step 1 
save head
save budget

period 189 step 1 
save head
save budget

period 190 step 1 
save head
save budget

period 191 step 1 
save head
save budget

period 192 step 1 
save head
save budget

period 193 step 1 
save head
save budget

period 194 step 1 
save head
save budget

period 195 step 1 
save head
save budget

period 196 step 1 
save head
save budget

period 197 step 1 
save head
save budget

period 198 step 1 
save head
save budget

period 199 step 1 
save head
save budget

period 200 step 1 
save head
save budget

period 201 step 1 
save head
save budget

period 202 step 1 
save head
save budget

period 203 step 1 
save head
save budget

period 204 step 1 
save head
save budget

period 205 step 1 
save head
save budget

period 206 step 1 
save head
save budget

period 207 step 1 
save head
save budget

period 208 step 1 
save head
save budget

period 209 step 1 
save head
save budget

period 210 step 1 
save head
save budget

period 211 step 1 
save head
save budget

period 212 step 1 
save head
save budget

period 213 step 1 
save head
save budget

period 214 step 1 
save head
save budget

period 215 step 1 
save head
save budget

period 216 step 1 
save head
save budget

period 217 step 1 
save head
save budget

period 218 step 1 
save head
save budget

period 219 step 1 
save head
save budget

period 220 step 1 
save head
save budget

period 221 step 1 
save head
save budget

period 222 step 1 
save head
save budget

period 223 step 1 
save head
save budget

period 224 step 1 
save head
save budget

period 225 step 1 
save head
save budget

period 226 step 1 
save head
save budget

period 227 step 1 
save head
save budget

period 228 step 1 
save head
save budget

period 229 step 1 
save head
save budget

period 230 step 1 
save head
save budget

period 231 step 1 
save head
save budget

period 232 step 1 
save head
save budget

period 233 step 1 
save head
save budget

period 234 step 1 
save head
save budget

period 235 step 1 
save head
save budget

period 236 step 1 
save head
save budget

period 237 step 1 
save head
save budget

period 238 step 1 
save head
save budget

period 239 step 1 
save head
save budget

period 240 step 1 
save head
save budget

period 241 step 1 
save head
save budget

period 242 step 1 
save head
save budget

period 243 step 1 
save head
save budget

period 244 step 1 
save head
save budget

period 245 step 1 
save head
save budget

period 246 step 1 
save head
save budget

period 247 step 1 
save head
save budget

period 248 step 1 
save head
save budget

period 249 step 1 
save head
save budget

period 250 step 1 
save head
save budget

period 251 step 1 
save head
save budget

period 252 step 1 
save head
save budget

period 253 step 1 
save head
save budget

period 254 step 1 
save head
save budget

period 255 step 1 
save head
save budget

period 256 step 1 
save head
save budget

period 257 step 1 
save head
save budget

period 258 step 1 
save head
save budget

period 259 step 1 
save head
save budget

period 260 step 1 
save head
save budget

period 261 step 1 
save head
save budget

period 262 step 1 
save head
save budget

period 263 step 1 
save head
save budget

period 264 step 1 
save head
save budget

period 265 step 1 
save head
save budget

period 266 step 1 
save head
save budget

period 267 step 1 
save head
save budget

period 268 step 1 
save head
save budget

period 269 step 1 
save head
save budget

period 270 step 1 
save head
save budget

period 271 step 1 
save head
save budget

period 272 step 1 
save head
save budget

period 273 step 1 
save head
save budget

period 274 step 1 
save head
save budget

period 275 step 1 
save head
save budget

period 276 step 1 
save head
save budget

period 277 step 1 
save head
save budget

period 278 step 1 
save head
save budget

period 279 step 1 
save head
save budget

period 280 step 1 
save head
save budget

period 281 step 1 
save head
save budget

period 282 step 1 
save head
save budget

period 283 step 1 
save head
save budget

period 284 step 1 
save head
save budget

period 285 step 1 
save head
save budget

period 286 step 1 
save head
save budget

period 287 step 1 
save head
save budget

period 288 step 1 
save head
save budget

period 289 step 1 
save head
save budget

period 290 step 1 
save head
save budget

period 291 step 1 
save head
save budget

period 292 step 1 
save head
save budget

period 293 step 1 
save head
save budget

period 294 step 1 
save head
save budget

period 295 step 1 
save head
save budget

period 296 step 1 
save head
save budget

period 297 step 1 
save head
save budget

period 298 step 1 
save head
save budget

period 299 step 1 
save head
save budget

period 300 step 1 
save head
save budget

period 301 step 1 
save head
save budget

period 302 step 1 
save head
save budget

period 303 step 1 
save head
save budget

period 304 step 1 
save head
save budget

period 305 step 1 
save head
save budget

period 306 step 1 
save head
save budget

period 307 step 1 
save head
save budget

period 308 step 1 
save head
save budget

period 309 step 1 
save head
save budget

period 310 step 1 
save head
save budget

period 311 step 1 
save head
save budget

period 312 step 1 
save head
save budget

period 313 step 1 
save head
save budget

period 314 step 1 
save head
save budget

period 315 step 1 
save head
save budget

period 316 step 1 
save head
save budget

period 317 step 1 
save head
save budget

period 318 step 1 
save head
save budget

period 319 step 1 
save head
save budget

period 320 step 1 
save head
save budget

period 321 step 1 
save head
save budget

period 322 step 1 
save head
save budget

period 323 step 1 
save head
save budget

period 324 step 1 
save head
save budget

period 325 step 1 
save head
save budget

period 326 step 1 
save head
save budget

period 327 step 1 
save head
save budget

period 328 step 1 
save head
save budget

period 329 step 1 
save head
save budget

period 330 step 1 
save head
save budget

period 331 step 1 
save head
save budget

period 332 step 1 
save head
save budget

period 333 step 1 
save head
save budget

period 334 step 1 
save head
save budget

period 335 step 1 
save head
save budget

period 336 step 1 
save head
save budget

period 337 step 1 
save head
save budget

period 338 step 1 
save head
save budget

period 339 step 1 
save head
save budget

period 340 step 1 
save head
save budget

period 341 step 1 
save head
save budget

period 342 step 1 
save head
save budget

period 343 step 1 
save head
save budget

period 344 step 1 
save head
save budget

period 345 step 1 
save head
save budget

period 346 step 1 
save head
save budget

period 347 step 1 
save head
save budget

period 348 step 1 
save head
save budget

period 349 step 1 
save head
save budget

period 350 step 1 
save head
save budget

period 351 step 1 
save head
save budget

period 352 step 1 
save head
save budget

period 353 step 1 
save head
save budget

period 354 step 1 
save head
save budget

period 355 step 1 
save head
save budget

period 356 step 1 
save head
save budget

period 357 step 1 
save head
save budget

period 358 step 1 
save head
save budget

period 359 step 1 
save head
save budget

period 360 step 1 
save head
save budget

period 361 step 1 
save head
save budget

period 362 step 1 
save head
save budget

period 363 step 1 
save head
save budget

period 364 step 1 
save head
save budget

period 365 step 1 
save head
save budget

period 366 step 1 
save head
save budget

period 367 step 1 
save head
save budget

period 368 step 1 
save head
save budget

period 369 step 1 
save head
save budget

period 370 step 1 
save head
save budget

period 371 step 1 
save head
save budget

period 372 step 1 
save head
save budget

period 373 step 1 
save head
save budget

period 374 step 1 
save head
save budget

period 375 step 1 
save head
save budget

period 376 step 1 
save head
save budget

period 377 step 1 
save head
save budget

period 378 step 1 
save head
save budget

period 379 step 1 
save head
save budget

period 380 step 1 
save head
save budget

period 381 step 1 
save head
save budget

period 382 step 1 
save head
save budget

period 383 step 1 
save head
save budget

period 384 step 1 
save head
save budget

period 385 step 1 
save head
save budget

period 386 step 1 
save head
save budget

period 387 step 1 
save head
save budget

period 388 step 1 
save head
save budget

period 389 step 1 
save head
save budget

period 390 step 1 
save head
save budget

period 391 step 1 
save head
save budget

period 392 step 1 
save head
save budget

period 393 step 1 
save head
save budget

period 394 step 1 
save head
save budget

period 395 step 1 
save head
save budget

period 396 step 1 
save head
save budget

period 397 step 1 
save head
save budget

period 398 step 1 
save head
save budget

period 399 step 1 
save head
save budget

period 400 step 1 
save head
save budget

period 401 step 1 
save head
save budget

period 402 step 1 
save head
save budget

period 403 step 1 
save head
save budget

period 404 step 1 
save head
save budget

period 405 step 1 
save head
save budget

period 406 step 1 
save head
save budget

period 407 step 1 
save head
save budget

period 408 step 1 
save head
save budget

period 409 step 1 
save head
save budget

period 410 step 1 
save head
save budget

period 411 step 1 
save head
save budget

period 412 step 1 
save head
save budget

period 413 step 1 
save head
save budget

period 414 step 1 
save head
save budget

period 415 step 1 
save head
save budget

period 416 step 1 
save head
save budget

period 417 step 1 
save head
save budget

period 418 step 1 
save head
save budget

period 419 step 1 
save head
save budget

period 420 step 1 
save head
save budget

period 421 step 1 
save head
save budget

period 422 step 1 
save head
save budget

period 423 step 1 
save head
save budget

period 424 step 1 
save head
save budget

period 425 step 1 
save head
save budget

period 426 step 1 
save head
save budget

period 427 step 1 
save head
save budget

period 428 step 1 
save head
save budget

period 429 step 1 
save head
save budget

period 430 step 1 
save head
save budget

period 431 step 1 
save head
save budget

period 432 step 1 
save head
save budget

period 433 step 1 
save head
save budget

period 434 step 1 
save head
save budget

period 435 step 1 
save head
save budget

period 436 step 1 
save head
save budget

period 437 step 1 
save head
save budget

period 438 step 1 
save head
save budget

period 439 step 1 
save head
save budget

period 440 step 1 
save head
save budget

period 441 step 1 
save head
save budget

period 442 step 1 
save head
save budget

period 443 step 1 
save head
save budget

period 444 step 1 
save head
save budget

period 445 step 1 
save head
save budget

period 446 step 1 
save head
save budget

period 447 step 1 
save head
save budget

period 448 step 1 
save head
save budget

period 449 step 1 
save head
save budget

period 450 step 1 
save head
save budget

period 451 step 1 
save head
save budget

period 452 step 1 
save head
save budget

period 453 step 1 
save head
save budget

period 454 step 1 
save head
save budget

period 455 step 1 
save head
save budget

period 456 step 1 
save head
save budget

period 457 step 1 
save head
save budget

period 458 step 1 
save head
save budget

period 459 step 1 
save head
save budget

period 460 step 1 
save head
save budget

period 461 step 1 
save head
save budget

period 462 step 1 
save head
save budget

period 463 step 1 
save head
save budget

period 464 step 1 
save head
save budget

period 465 step 1 
save head
save budget

period 466 step 1 
save head
save budget

period 467 step 1 
save head
save budget

period 468 step 1 
save head
save budget

period 469 step 1 
save head
save budget

period 470 step 1 
save head
save budget

period 471 step 1 
save head
save budget

period 472 step 1 
save head
save budget

period 473 step 1 
save head
save budget

period 474 step 1 
save head
save budget

period 475 step 1 
save head
save budget

period 476 step 1 
save head
save budget

period 477 step 1 
save head
save budget

period 478 step 1 
save head
save budget

period 479 step 1 
save head
save budget

period 480 step 1 
save head
save budget

period 481 step 1 
save head
save budget

period 482 step 1 
save head
save budget

period 483 step 1 
save head
save budget

period 484 step 1 
save head
save budget

period 485 step 1 
save head
save budget

period 486 step 1 
save head
save budget

period 487 step 1 
save head
save budget

period 488 step 1 
save head
save budget

period 489 step 1 
save head
save budget

period 490 step 1 
save head
save budget

period 491 step 1 
save head
save budget

period 492 step 1 
save head
save budget

period 493 step 1 
save head
save budget

period 494 step 1 
save head
save budget

period 495 step 1 
save head
save budget

period 496 step 1 
save head
save budget

period 497 step 1 
save head
save budget

period 498 step 1 
save head
save budget

period 499 step 1 
save head
save budget

period 500 step 1 
save head
save budget

period 501 step 1 
save head
save budget

period 502 step 1 
save head
save budget

period 503 step 1 
save head
save budget

period 504 step 1 
save head
save budget

period 505 step 1 
save head
save budget

period 506 step 1 
save head
save budget

period 507 step 1 
save head
save budget

period 508 step 1 
save head
save budget

period 509 step 1 
save head
save budget

period 510 step 1 
save head
save budget

period 511 step 1 
save head
save budget

period 512 step 1 
save head
save budget

period 513 step 1 
save head
save budget

period 514 step 1 
save head
save budget

period 515 step 1 
save head
save budget

period 516 step 1 
save head
save budget

period 517 step 1 
save head
save budget

period 518 step 1 
save head
save budget

period 519 step 1 
save head
save budget

period 520 step 1 
save head
save budget

period 521 step 1 
save head
save budget

period 522 step 1 
save head
save budget

period 523 step 1 
save head
save budget

period 524 step 1 
save head
save budget

period 525 step 1 
save head
save budget

period 526 step 1 
save head
save budget

period 527 step 1 
save head
save budget

period 528 step 1 
save head
save budget

period 529 step 1 
save head
save budget

period 530 step 1 
save head
save budget

period 531 step 1 
save head
save budget

period 532 step 1 
save head
save budget

period 533 step 1 
save head
save budget

period 534 step 1 
save head
save budget

period 535 step 1 
save head
save budget

period 536 step 1 
save head
save budget

period 537 step 1 
save head
save budget

period 538 step 1 
save head
save budget

period 539 step 1 
save head
save budget

period 540 step 1 
save head
save budget

period 541 step 1 
save head
save budget

period 542 step 1 
save head
save budget

period 543 step 1 
save head
save budget

period 544 step 1 
save head
save budget

period 545 step 1 
save head
save budget

period 546 step 1 
save head
save budget

period 547 step 1 
save head
save budget

period 548 step 1 
save head
save budget

period 549 step 1 
save head
save budget

period 550 step 1 
save head
save budget

period 551 step 1 
save head
save budget

period 552 step 1 
save head
save budget

period 553 step 1 
save head
save budget

period 554 step 1 
save head
save budget

period 555 step 1 
save head
save budget

period 556 step 1 
save head
save budget

period 557 step 1 
save head
save budget

period 558 step 1 
save head
save budget

period 559 step 1 
save head
save budget

period 560 step 1 
save head
save budget

period 561 step 1 
save head
save budget

period 562 step 1 
save head
save budget

period 563 step 1 
save head
save budget

period 564 step 1 
save head
save budget

period 565 step 1 
save head
save budget

period 566 step 1 
save head
save budget

period 567 step 1 
save head
save budget

period 568 step 1 
save head
save budget

period 569 step 1 
save head
save budget

period 570 step 1 
save head
save budget

period 571 step 1 
save head
save budget

period 572 step 1 
save head
save budget

period 573 step 1 
save head
save budget

period 574 step 1 
save head
save budget

period 575 step 1 
save head
save budget

period 576 step 1 
save head
save budget

period 577 step 1 
save head
save budget

period 578 step 1 
save head
save budget

period 579 step 1 
save head
save budget

period 580 step 1 
save head
save budget

period 581 step 1 
save head
save budget

period 582 step 1 
save head
save budget

period 583 step 1 
save head
save budget

period 584 step 1 
save head
save budget

period 585 step 1 
save head
save budget

period 586 step 1 
save head
save budget

period 587 step 1 
save head
save budget

period 588 step 1 
save head
save budget

period 589 step 1 
save head
save budget

period 590 step 1 
save head
save budget

period 591 step 1 
save head
save budget

period 592 step 1 
save head
save budget

period 593 step 1 
save head
save budget

period 594 step 1 
save head
save budget

period 595 step 1 
save head
save budget

period 596 step 1 
save head
save budget

period 597 step 1 
save head
save budget

period 598 step 1 
save head
save budget

period 599 step 1 
save head
save budget

period 600 step 1 
save head
save budget

period 601 step 1 
save head
save budget

period 602 step 1 
save head
save budget

period 603 step 1 
save head
save budget

period 604 step 1 
save head
save budget

period 605 step 1 
save head
save budget

period 606 step 1 
save head
save budget

period 607 step 1 
save head
save budget

period 608 step 1 
save head
save budget

period 609 step 1 
save head
save budget

period 610 step 1 
save head
save budget

period 611 step 1 
save head
save budget

period 612 step 1 
save head
save budget

period 613 step 1 
save head
save budget

period 614 step 1 
save head
save budget

period 615 step 1 
save head
save budget

period 616 step 1 
save head
save budget

period 617 step 1 
save head
save budget

period 618 step 1 
save head
save budget

period 619 step 1 
save head
save budget

period 620 step 1 
save head
save budget

period 621 step 1 
save head
save budget

period 622 step 1 
save head
save budget

period 623 step 1 
save head
save budget

period 624 step 1 
save head
save budget

period 625 step 1 
save head
save budget

period 626 step 1 
save head
save budget

period 627 step 1 
save head
save budget

period 628 step 1 
save head
save budget

period 629 step 1 
save head
save budget

period 630 step 1 
save head
save budget

period 631 step 1 
save head
save budget

period 632 step 1 
save head
save budget

period 633 step 1 
save head
save budget

period 634 step 1 
save head
save budget

period 635 step 1 
save head
save budget

period 636 step 1 
save head
save budget

period 637 step 1 
save head
save budget

period 638 step 1 
save head
save budget

period 639 step 1 
save head
save budget

period 640 step 1 
save head
save budget

period 641 step 1 
save head
save budget

period 642 step 1 
save head
save budget

period 643 step 1 
save head
save budget

period 644 step 1 
save head
save budget

period 645 step 1 
save head
save budget

period 646 step 1 
save head
save budget

period 647 step 1 
save head
save budget

period 648 step 1 
save head
save budget

period 649 step 1 
save head
save budget

period 650 step 1 
save head
save budget

period 651 step 1 
save head
save budget

period 652 step 1 
save head
save budget

period 653 step 1 
save head
save budget

period 654 step 1 
save head
save budget

period 655 step 1 
save head
save budget

period 656 step 1 
save head
save budget

period 657 step 1 
save head
save budget

period 658 step 1 
save head
save budget

period 659 step 1 
save head
save budget

period 660 step 1 
save head
save budget

period 661 step 1 
save head
save budget

period 662 step 1 
save head
save budget

period 663 step 1 
save head
save budget

period 664 step 1 
save head
save budget

period 665 step 1 
save head
save budget

period 666 step 1 
save head
save budget

period 667 step 1 
save head
save budget

period 668 step 1 
save head
save budget

period 669 step 1 
save head
save budget

period 670 step 1 
save head
save budget

period 671 step 1 
save head
save budget

period 672 step 1 
save head
save budget

period 673 step 1 
save head
save budget

period 674 step 1 
save head
save budget

period 675 step 1 
save head
save budget

period 676 step 1 
save head
save budget

period 677 step 1 
save head
save budget

period 678 step 1 
save head
save budget

period 679 step 1 
save head
save budget

period 680 step 1 
save head
save budget

period 681 step 1 
save head
save budget

period 682 step 1 
save head
save budget

period 683 step 1 
save head
save budget

period 684 step 1 
save head
save budget

period 685 step 1 
save head
save budget

period 686 step 1 
save head
save budget

period 687 step 1 
save head
save budget

period 688 step 1 
save head
save budget

period 689 step 1 
save head
save budget

period 690 step 1 
save head
save budget

period 691 step 1 
save head
save budget

period 692 step 1 
save head
save budget

period 693 step 1 
save head
save budget

period 694 step 1 
save head
save budget

period 695 step 1 
save head
save budget

period 696 step 1 
save head
save budget

period 697 step 1 
save head
save budget

period 698 step 1 
save head
save budget

period 699 step 1 
save head
save budget

period 700 step 1 
save head
save budget

period 701 step 1 
save head
save budget

period 702 step 1 
save head
save budget

period 703 step 1 
save head
save budget

period 704 step 1 
save head
save budget

period 705 step 1 
save head
save budget

period 706 step 1 
save head
save budget

period 707 step 1 
save head
save budget

period 708 step 1 
save head
save budget

period 709 step 1 
save head
save budget

period 710 step 1 
save head
save budget

period 711 step 1 
save head
save budget

period 712 step 1 
save head
save budget

period 713 step 1 