# UPW for MODFLOW-NWT, generated by Flopy.
        53    -1E+30         0         0 
         1         1         1
         0         0         0
         1         1         1
         0         0         0
         0         0         0
INTERNAL               1     (FREE) -1 #hk                            
   1.254442E+01   1.221091E+01   1.246752E+01   9.586080E+00   9.737280E+00   1.025914E+01   9.101376E+00   9.923903E+00   1.049414E+01   8.990784E+00   7.992000E+00   8.240054E+00   7.860067E+00   1.004918E+01   9.702720E+00   9.163584E+00   9.832320E+00   9.895391E+00   9.684576E+00   9.566208E+00
   1.284941E+01   1.278806E+01   9.029664E+00   1.000771E+01   9.114336E+00   9.578303E+00   9.143712E+00   9.774432E+00   1.029629E+01   8.516275E+00   7.944739E+00   8.709121E+00   7.981373E+00   9.063360E+00   1.030320E+01   9.294048E+00   7.051623E+00   9.840096E+00   1.011917E+01   8.793792E+00
   1.219622E+01   1.374451E+01   9.408960E+00   9.736416E+00   9.983520E+00   9.568800E+00   9.453024E+00   1.001549E+01   8.970048E+00   7.727270E+00   7.468935E+00   7.567257E+00   7.419773E+00   1.029542E+01   9.099648E+00   9.823680E+00   7.112707E+00   9.215425E+00   9.500544E+00   8.599824E+00
   9.284544E+00   8.101037E+00   9.982656E+00   1.023235E+01   9.759744E+00   9.821088E+00   9.311328E+00   9.316512E+00   9.535968E+00   7.799674E+00   7.374758E+00   8.164973E+00   8.072784E+00   8.710848E+00   8.518867E+00   7.079616E+00   7.347542E+00   9.804671E+00   9.168768E+00   9.296639E+00
   9.332064E+00   8.287920E+00   9.591264E+00   9.798624E+00   1.051661E+01   9.669888E+00   7.686922E+00   7.920461E+00   8.340883E+00   7.620134E+00   8.286451E+00   8.273750E+00   7.627651E+00   9.467712E+00   9.063360E+00   6.646060E+00   7.542460E+00   8.687520E+00   9.831456E+00   8.658144E+00
   9.550656E+00   7.179408E+00   8.512646E+00   7.996925E+00   7.041168E+00   7.929533E+00   7.599399E+00   7.946122E+00   8.148557E+00   7.474637E+00   7.595769E+00   7.908192E+00   8.174217E+00   9.535104E+00   8.545737E+00   7.499261E+00   8.150804E+00   9.472896E+00   9.402048E+00   8.746272E+00
   9.762336E+00   7.973510E+00   8.022326E+00   7.055079E+00   6.857827E+00   7.720099E+00   7.548336E+00   7.540905E+00   7.844170E+00   8.004528E+00   6.219418E+00   6.992179E+00   7.615728E+00   7.601386E+00   6.970148E+00   8.159012E+00   8.289389E+00   7.718544E+00   7.657027E+00   9.915264E+00
   9.421056E+00   7.770298E+00   8.141644E+00   9.815905E+00   9.439200E+00   9.394272E+00   9.720000E+00   6.912951E+00   7.512912E+00   7.464528E+00   5.826125E+00   7.291123E+00   8.405252E+00   7.874064E+00   7.921757E+00   8.606217E+00   7.002979E+00   7.283520E+00   8.446118E+00   9.361441E+00
   1.021680E+01   7.223213E+00   7.636983E+00   1.018656E+01   0.000000E+00   0.000000E+00   0.000000E+00   9.345024E+00   7.797513E+00   7.316179E+00   5.558544E+00   7.434374E+00   7.444915E+00   7.830605E+00   7.874669E+00   7.728135E+00   7.286371E+00   8.403264E+00   7.832247E+00   1.013645E+01
   9.326016E+00   8.194695E+00   7.882272E+00   9.351935E+00   0.000000E+00   0.000000E+00   0.000000E+00   0.000000E+00   1.003795E+01   7.311255E+00   6.452266E+00   7.333718E+00   7.164029E+00   7.518960E+00   7.939641E+00   8.073562E+00   8.675424E+00   7.679578E+00   8.122032E+00   9.854784E+00
   1.009325E+01   7.285680E+00   7.278163E+00   8.763552E+00   0.000000E+00   0.000000E+00   0.000000E+00   0.000000E+00   9.001152E+00   7.848749E+00   5.255021E+00   5.524761E+00   5.966265E+00   7.600348E+00   7.962451E+00   6.937056E+00   8.047987E+00   6.663168E+00   8.019734E+00   7.227273E+00
   1.012608E+01   8.253101E+00   7.664285E+00   8.717760E+00   0.000000E+00   0.000000E+00   0.000000E+00   0.000000E+00   9.421056E+00   7.777987E+00   6.349709E+00   6.518448E+00   6.022339E+00   6.962285E+00   8.037446E+00   5.392311E+00   9.021024E+00   7.053005E+00   7.945517E+00   8.921664E+00
   9.254304E+00   8.359718E+00   7.444483E+00   9.266400E+00   0.000000E+00   0.000000E+00   0.000000E+00   0.000000E+00   9.572256E+00   7.773494E+00   5.281719E+00   8.002714E+00   7.207661E+00   8.195818E+00   7.890307E+00   7.670506E+00   7.335014E+00   7.922707E+00   6.982934E+00   7.385817E+00
   9.374400E+00   7.581773E+00   7.029677E+00   1.021248E+01   0.000000E+00   0.000000E+00   0.000000E+00   0.000000E+00   8.967456E+00   7.576070E+00   6.078499E+00   5.954774E+00   5.704128E+00   7.901971E+00   8.625225E+00   6.784214E+00   8.389958E+00   7.510666E+00   8.593863E+00   7.513776E+00
   9.513504E+00   7.413724E+00   7.531315E+00   1.041898E+01   0.000000E+00   0.000000E+00   0.000000E+00   0.000000E+00   7.656595E+00   7.322400E+00   4.847558E+00   6.499181E+00   6.188573E+00   6.016464E+00   6.021907E+00   6.323616E+00   6.049383E+00   7.168522E+00   7.682256E+00   1.018483E+01
   8.930304E+00   7.942320E+00   7.989235E+00   9.096192E+00   0.000000E+00   0.000000E+00   0.000000E+00   0.000000E+00   7.639056E+00   5.814548E+00   4.100717E+00   5.678727E+00   6.288711E+00   6.043766E+00   6.215529E+00   5.860166E+00   6.642000E+00   8.168083E+00   8.095939E+00   9.104832E+00
   9.968832E+00   7.907846E+00   7.919165E+00   9.701856E+00   0.000000E+00   0.000000E+00   0.000000E+00   0.000000E+00   6.963063E+00   6.321370E+00   4.203965E+00   6.515165E+00   6.179414E+00   6.263309E+00   5.808240E+00   5.405875E+00   5.645117E+00   7.738848E+00   7.808660E+00   1.023494E+01
   9.408960E+00   7.243084E+00   8.233142E+00   8.900064E+00   0.000000E+00   0.000000E+00   0.000000E+00   0.000000E+00   7.132234E+00   6.680880E+00   4.546800E+00   4.910371E+00   6.311261E+00   6.207149E+00   6.367161E+00   6.629731E+00   6.279811E+00   7.408282E+00   7.696080E+00   9.731232E+00
   9.431424E+00   8.032695E+00   8.184586E+00   8.974368E+00   0.000000E+00   0.000000E+00   0.000000E+00   0.000000E+00   7.049635E+00   5.606410E+00   4.712083E+00   3.510345E+00   5.162659E+00   6.109603E+00   6.521386E+00   6.562944E+00   5.875027E+00   7.611926E+00   8.701344E+00   9.628416E+00
   9.478944E+00   7.962278E+00   7.238851E+00   9.628416E+00   0.000000E+00   0.000000E+00   0.000000E+00   0.000000E+00   8.453895E+00   6.412435E+00   4.127414E+00   3.885408E+00   5.118249E+00   6.058196E+00   6.042730E+00   6.559143E+00   5.955293E+00   7.586093E+00   7.536240E+00   9.675072E+00
   9.990432E+00   7.281792E+00   7.891257E+00   1.054512E+01   0.000000E+00   0.000000E+00   0.000000E+00   0.000000E+00   7.750944E+00   6.007824E+00   4.318099E+00   4.492023E+00   3.301949E+00   6.836573E+00   6.045495E+00   5.954774E+00   5.807549E+00   6.936451E+00   7.158586E+00   9.411551E+00
   9.561888E+00   7.843306E+00   8.322653E+00   1.006301E+01   0.000000E+00   0.000000E+00   9.774432E+00   9.540288E+00   7.697289E+00   6.143212E+00   4.427136E+00   3.567283E+00   4.205693E+00   5.949159E+00   6.264259E+00   5.702659E+00   6.204471E+00   8.148211E+00   7.620566E+00   8.921664E+00
   9.191232E+00   7.873027E+00   7.155216E+00   9.930816E+00   9.425376E+00   0.000000E+00   9.798624E+00   7.251466E+00   7.462109E+00   5.817830E+00   4.129488E+00   3.905194E+00   3.370119E+00   6.619709E+00   6.117206E+00   6.363965E+00   4.612896E+00   6.704640E+00   7.499693E+00   9.459072E+00
   9.809856E+00   8.239190E+00   7.541597E+00   7.637328E+00   8.880192E+00   9.504000E+00   8.413287E+00   7.319549E+00   8.568374E+00   6.230909E+00   4.376246E+00   4.537728E+00   4.059677E+00   6.289574E+00   6.425222E+00   4.456253E+00   6.531408E+00   5.992617E+00   8.219665E+00   7.710855E+00
   9.783936E+00   7.954676E+00   7.922534E+00   8.004355E+00   7.935581E+00   7.855661E+00   7.703683E+00   7.183468E+00   5.630860E+00   6.681658E+00   4.551552E+00   4.442947E+00   3.591043E+00   5.820855E+00   6.599492E+00   4.116010E+00   6.143385E+00   6.550157E+00   8.081856E+00   8.129894E+00
   9.868608E+00   7.883827E+00   8.287401E+00   5.819558E+00   7.877693E+00   7.302010E+00   7.709558E+00   8.204717E+00   6.003590E+00   6.049469E+00   4.158173E+00   4.274554E+00   4.112726E+00   6.708614E+00   6.520694E+00   4.147632E+00   6.678201E+00   6.823699E+00   8.157110E+00   7.641908E+00
   1.015200E+01   7.239369E+00   8.561376E+00   7.920029E+00   5.736528E+00   7.555852E+00   7.767965E+00   5.621962E+00   5.939654E+00   4.509734E+00   1.485043E+00   4.626461E+00   3.985632E+00   4.237920E+00   4.307213E+00   3.904070E+00   5.346432E+00   5.415120E+00   6.305558E+00   8.200397E+00
   8.744544E+00   9.287136E+00   7.245936E+00   7.666445E+00   7.976275E+00   7.174483E+00   5.276275E+00   4.732214E+00   5.958404E+00   3.412195E+00   3.453495E+00   4.218653E+00   4.370890E+00   4.046371E+00   4.233168E+00   3.913747E+00   4.510252E+00   6.072192E+00   6.207926E+00   6.830611E+00
   9.053856E+00   9.545472E+00   7.856266E+00   7.813843E+00   8.353757E+00   6.354201E+00   4.886611E+00   1.148342E+00   6.010762E+00   5.278781E+00   2.809555E+00   4.702493E+00   4.513795E+00   3.704919E+00   4.689360E+00   2.326493E+00   4.041446E+00   4.191092E+00   6.381763E+00   6.653405E+00
   8.839583E+00   1.007856E+01   8.416570E+00   8.451475E+00   8.631792E+00   6.576595E+00   1.374019E+00   1.609805E+00   1.348272E+00   2.860877E+00   2.153088E+00   4.304966E+00   4.706294E+00   4.062182E+00   4.388170E+00   2.348871E+00   3.243802E+00   4.347907E+00   4.470509E+00   5.215709E+00
   9.573984E+00   7.365773E+00   7.357738E+00   7.963748E+00   6.269529E+00   3.388089E+00   2.556403E+00   1.700266E+00   2.840055E+00   2.136413E+00   2.702246E+00   4.175971E+00   4.751914E+00   4.320777E+00   2.881613E+00   1.399507E+00   2.286835E+00   1.806883E+00   3.998765E+00   4.168973E+00
   9.440928E+00   7.449494E+00   7.520774E+00   7.828963E+00   8.308829E+00   5.727974E+00   7.525872E-01   2.394144E+00   2.478989E+00   3.092256E+00   2.302733E+00   2.929478E+00   4.736362E+00   4.616093E+00   1.586995E+00   1.605398E+00   2.113344E+00   1.878595E+00   4.479408E+00   4.973184E+00
   0.000000E+00   7.876915E+00   7.630070E+00   7.746797E+00   7.619443E+00   7.429795E+00   5.957971E+00   4.126205E+00   3.469392E-01   2.292624E+00   2.126736E+00   1.735603E+00   1.595290E+00   5.182099E+00   4.347821E+00   3.904416E+00   2.229552E+00   3.948393E+00   4.122231E+00   6.480000E+00
   0.000000E+00   0.000000E+00   7.034688E+00   7.735997E+00   8.435146E+00   5.663607E+00   6.159802E+00   4.555181E+00   3.403123E+00   3.297111E+00   2.151878E+00   2.191709E+00   1.532736E+00   4.422729E+00   3.787862E+00   4.397760E+00   3.678480E+00   4.956422E+00   5.741539E+00   7.813411E+00
   0.000000E+00   0.000000E+00   0.000000E+00   5.718211E+00   6.604934E+00   5.585242E+00   5.267981E+00   6.686668E+00   3.469219E+00   2.272579E+00   1.918598E+00   1.242086E+00   3.353789E+00   3.955738E+00   4.225306E+00   4.661626E+00   4.281898E+00   4.010343E+00   6.630682E+00   7.649597E+00
   0.000000E+00   0.000000E+00   0.000000E+00   0.000000E+00   6.435677E+00   6.408029E+00   6.157901E+00   4.524508E+00   4.221245E+00   1.372637E+00   2.199657E+00   1.825805E+00   2.325802E+00   4.643654E+00   4.292525E+00   4.045334E+00   4.071254E+00   5.766249E+00   8.755776E+00   0.000000E+00
   0.000000E+00   0.000000E+00   0.000000E+00   0.000000E+00   7.534339E+00   6.198681E+00   5.593277E+00   4.677351E+00   4.437504E+00   2.236377E+00   2.270333E+00   2.565994E+00   1.756598E+00   4.462820E+00   3.537302E+00   4.402253E+00   6.422717E+00   6.144768E+00   7.607520E+00   0.000000E+00
   0.000000E+00   0.000000E+00   0.000000E+00   0.000000E+00   0.000000E+00   6.431011E+00   5.959872E+00   4.131216E+00   5.372439E+00   1.374278E+00   1.761782E+00   2.348611E+00   1.491782E+00   1.799885E+00   2.466374E+00   4.712083E+00   4.384541E+00   5.451149E+00   0.000000E+00   0.000000E+00
   0.000000E+00   0.000000E+00   0.000000E+00   0.000000E+00   0.000000E+00   5.943801E+00   6.804259E+00   5.645463E+00   4.542998E+00   2.014416E+00   2.107469E+00   2.527200E+00   2.378160E+00   1.552435E+00   2.821910E+00   3.666471E+00   5.479920E+00   0.000000E+00   0.000000E+00   0.000000E+00
   0.000000E+00   0.000000E+00   0.000000E+00   0.000000E+00   0.000000E+00   8.186486E+00   4.592247E+00   4.413917E+00   2.280096E+00   2.473200E+00   2.063750E+00   1.391040E+00   1.546128E+00   1.312243E+00   3.988483E+00   0.000000E+00   0.000000E+00   0.000000E+00   0.000000E+00   0.000000E+00
CONSTANT    1.000000E+00                           #vka                           
INTERNAL               1     (FREE) -1 #ss                            
   1.000000E-03   1.000000E-03   1.000000E-03   1.000000E-03   1.000000E-05   1.000000E-05   1.000000E-05   1.000000E-05   1.000000E-05   1.000000E-05   1.000000E-05   1.000000E-05   1.000000E-05   1.000000E-05   1.000000E-05   1.000000E-05   1.000000E-05   1.000000E-05   1.000000E-05   1.000000E-05
   1.000000E-03   1.000000E-03   1.000000E-03   1.000000E-03   1.000000E-05   1.000000E-05   1.000000E-05   1.000000E-05   1.000000E-05   1.000000E-05   1.000000E-05   1.000000E-05   1.000000E-05   1.000000E-05   1.000000E-05   1.000000E-05   1.000000E-05   1.000000E-05   1.000000E-05   1.000000E-05
   1.000000E-03   1.000000E-03   1.000000E-03   1.000000E-03   1.000000E-05   1.000000E-05   1.000000E-05   1.000000E-05   1.000000E-05   1.000000E-05   1.000000E-05   1.000000E-05   1.000000E-05   1.000000E-05   1.000000E-05   1.000000E-05   1.000000E-05   1.000000E-05   1.000000E-05   1.000000E-05
   1.000000E-03   1.000000E-03   1.000000E-03   1.000000E-03   1.000000E-05   1.000000E-05   1.000000E-05   1.000000E-05   1.000000E-05   1.000000E-05   1.000000E-05   1.000000E-05   1.000000E-05   1.000000E-05   1.000000E-05   1.000000E-05   1.000000E-05   1.000000E-05   1.000000E-05   1.000000E-05
   1.000000E-03   1.000000E-03   1.000000E-03   1.000000E-03   1.000000E-05   1.000000E-05   1.000000E-05   1.000000E-05   1.000000E-05   1.000000E-05   1.000000E-05   1.000000E-05   1.000000E-05   1.000000E-05   1.000000E-05   1.000000E-05   1.000000E-05   1.000000E-05   1.000000E-05   1.000000E-05
   1.000000E-03   1.000000E-03   1.000000E-03   1.000000E-03   1.000000E-05   1.000000E-05   1.000000E-05   1.000000E-05   1.000000E-05   1.000000E-05   1.000000E-05   1.000000E-05   1.000000E-05   1.000000E-05   1.000000E-05   1.000000E-05   1.000000E-05   1.000000E-05   1.000000E-05   1.000000E-05
   1.000000E-03   1.000000E-03   1.000000E-03   1.000000E-03   1.000000E-05   1.000000E-05   1.000000E-05   1.000000E-05   1.000000E-05   1.000000E-05   1.000000E-05   1.000000E-05   1.000000E-05   1.000000E-05   1.000000E-05   1.000000E-05   1.000000E-05   1.000000E-05   1.000000E-05   1.000000E-05
   1.000000E-03   1.000000E-03   1.000000E-03   1.000000E-03   1.000000E-05   1.000000E-05   1.000000E-05   1.000000E-05   1.000000E-05   1.000000E-05   1.000000E-05   1.000000E-05   1.000000E-05   1.000000E-05   1.000000E-05   1.000000E-05   1.000000E-05   1.000000E-05   1.000000E-05   1.000000E-05
   1.000000E-03   1.000000E-03   1.000000E-03   1.000000E-03   1.000000E-05   1.000000E-05   1.000000E-05   1.000000E-05   1.000000E-05   1.000000E-05   1.000000E-05   1.000000E-05   1.000000E-05   1.000000E-05   1.000000E-05   1.000000E-05   1.000000E-05   1.000000E-05   1.000000E-05   1.000000E-05
   1.000000E-03   1.000000E-03   1.000000E-03   1.000000E-03   1.000000E-05   1.000000E-05   1.000000E-05   1.000000E-05   1.000000E-05   1.000000E-05   1.000000E-05   1.000000E-05   1.000000E-05   1.000000E-05   1.000000E-05   1.000000E-05   1.000000E-05   1.000000E-05   1.000000E-05   1.000000E-05
   1.000000E-03   1.000000E-03   1.000000E-03   1.000000E-03   1.000000E-05   1.000000E-05   1.000000E-05   1.000000E-05   1.000000E-05   1.000000E-05   1.000000E-05   1.000000E-05   1.000000E-05   1.000000E-05   1.000000E-05   1.000000E-05   1.000000E-05   1.000000E-05   1.000000E-05   1.000000E-05
   1.000000E-03   1.000000E-03   1.000000E-03   1.000000E-03   1.000000E-05   1.000000E-05   1.000000E-05   1.000000E-05   1.000000E-05   1.000000E-05   1.000000E-05   1.000000E-05   1.000000E-05   1.000000E-05   1.000000E-05   1.000000E-05   1.000000E-05   1.000000E-05   1.000000E-05   1.000000E-05
   1.000000E-03   1.000000E-03   1.000000E-03   1.000000E-03   1.000000E-05   1.000000E-05   1.000000E-05   1.000000E-05   1.000000E-05   1.000000E-05   1.000000E-05   1.000000E-05   1.000000E-05   1.000000E-05   1.000000E-05   1.000000E-05   1.000000E-05   1.000000E-05   1.000000E-05   1.000000E-05
   1.000000E-03   1.000000E-03   1.000000E-03   1.000000E-03   1.000000E-05   1.000000E-05   1.000000E-05   1.000000E-05   1.000000E-05   1.000000E-05   1.000000E-05   1.000000E-05   1.000000E-05   1.000000E-05   1.000000E-05   1.000000E-05   1.000000E-05   1.000000E-05   1.000000E-05   1.000000E-05
   1.000000E-03   1.000000E-03   1.000000E-03   1.000000E-03   1.000000E-05   1.000000E-05   1.000000E-05   1.000000E-05   1.000000E-05   1.000000E-05   1.000000E-05   1.000000E-05   1.000000E-05   1.000000E-05   1.000000E-05   1.000000E-05   1.000000E-05   1.000000E-05   1.000000E-05   1.000000E-05
   1.000000E-03   1.000000E-03   1.000000E-03   1.000000E-03   1.000000E-05   1.000000E-05   1.000000E-05   1.000000E-05   1.000000E-05   1.000000E-05   1.000000E-05   1.000000E-05   1.000000E-05   1.000000E-05   1.000000E-05   1.000000E-05   1.000000E-05   1.000000E-05   1.000000E-05   1.000000E-05
   1.000000E-03   1.000000E-03   1.000000E-03   1.000000E-03   1.000000E-05   1.000000E-05   1.000000E-05   1.000000E-05   1.000000E-05   1.000000E-05   1.000000E-05   1.000000E-05   1.000000E-05   1.000000E-05   1.000000E-05   1.000000E-05   1.000000E-05   1.000000E-05   1.000000E-05   1.000000E-05
   1.000000E-03   1.000000E-03   1.000000E-03   1.000000E-03   1.000000E-05   1.000000E-05   1.000000E-05   1.000000E-05   1.000000E-05   1.000000E-05   1.000000E-05   1.000000E-05   1.000000E-05   1.000000E-05   1.000000E-05   1.000000E-05   1.000000E-05   1.000000E-05   1.000000E-05   1.000000E-05
   1.000000E-03   1.000000E-03   1.000000E-03   1.000000E-03   1.000000E-05   1.000000E-05   1.000000E-05   1.000000E-05   1.000000E-05   1.000000E-05   1.000000E-05   1.000000E-05   1.000000E-05   1.000000E-05   1.000000E-05   1.000000E-05   1.000000E-05   1.000000E-05   1.000000E-05   1.000000E-05
   1.000000E-03   1.000000E-03   1.000000E-03   1.000000E-03   1.000000E-05   1.000000E-05   1.000000E-05   1.000000E-05   1.000000E-05   1.000000E-05   1.000000E-05   1.000000E-05   1.000000E-05   1.000000E-05   1.000000E-05   1.000000E-05   1.000000E-05   1.000000E-05   1.000000E-05   1.000000E-05
   1.000000E-03   1.000000E-03   1.000000E-03   1.000000E-03   1.000000E-05   1.000000E-05   1.000000E-05   1.000000E-05   1.000000E-05   1.000000E-05   1.000000E-05   1.000000E-05   1.000000E-05   1.000000E-05   1.000000E-05   1.000000E-05   1.000000E-05   1.000000E-05   1.000000E-05   1.000000E-05
   1.000000E-03   1.000000E-03   1.000000E-03   1.000000E-03   1.000000E-05   1.000000E-05   1.000000E-05   1.000000E-05   1.000000E-05   1.000000E-05   1.000000E-05   1.000000E-05   1.000000E-05   1.000000E-05   1.000000E-05   1.000000E-05   1.000000E-05   1.000000E-05   1.000000E-05   1.000000E-05
   1.000000E-03   1.000000E-03   1.000000E-03   1.000000E-03   1.000000E-05   1.000000E-05   1.000000E-05   1.000000E-05   1.000000E-05   1.000000E-05   1.000000E-05   1.000000E-05   1.000000E-05   1.000000E-05   1.000000E-05   1.000000E-05   1.000000E-05   1.000000E-05   1.000000E-05   1.000000E-05
   1.000000E-03   1.000000E-03   1.000000E-03   1.000000E-03   1.000000E-05   1.000000E-05   1.000000E-05   1.000000E-05   1.000000E-05   1.000000E-05   1.000000E-05   1.000000E-05   1.000000E-05   1.000000E-05   1.000000E-05   1.000000E-05   1.000000E-05   1.000000E-05   1.000000E-05   1.000000E-05
   1.000000E-03   1.000000E-03   1.000000E-03   1.000000E-03   1.000000E-05   1.000000E-05   1.000000E-05   1.000000E-05   1.000000E-05   1.000000E-05   1.000000E-05   1.000000E-05   1.000000E-05   1.000000E-05   1.000000E-05   1.000000E-05   1.000000E-05   1.000000E-05   1.000000E-05   1.000000E-05
   1.000000E-03   1.000000E-03   1.000000E-03   1.000000E-03   1.000000E-05   1.000000E-05   1.000000E-05   1.000000E-05   1.000000E-05   1.000000E-05   1.000000E-05   1.000000E-05   1.000000E-05   1.000000E-05   1.000000E-05   1.000000E-05   1.000000E-05   1.000000E-05   1.000000E-05   1.000000E-05
   1.000000E-03   1.000000E-03   1.000000E-03   1.000000E-03   1.000000E-05   1.000000E-05   1.000000E-05   1.000000E-05   1.000000E-05   1.000000E-05   1.000000E-05   1.000000E-05   1.000000E-05   1.000000E-05   1.000000E-05   1.000000E-05   1.000000E-05   1.000000E-05   1.000000E-05   1.000000E-05
   1.000000E-03   1.000000E-03   1.000000E-03   1.000000E-03   1.000000E-05   1.000000E-05   1.000000E-05   1.000000E-05   1.000000E-05   1.000000E-05   1.000000E-05   1.000000E-05   1.000000E-05   1.000000E-05   1.000000E-05   1.000000E-05   1.000000E-05   1.000000E-05   1.000000E-05   1.000000E-05
   1.000000E-03   1.000000E-03   1.000000E-03   1.000000E-03   1.000000E-05   1.000000E-05   1.000000E-05   1.000000E-05   1.000000E-05   1.000000E-05   1.000000E-05   1.000000E-05   1.000000E-05   1.000000E-05   1.000000E-05   1.000000E-05   1.000000E-05   1.000000E-05   1.000000E-05   1.000000E-05
   1.000000E-03   1.000000E-03   1.000000E-03   1.000000E-03   1.000000E-05   1.000000E-05   1.000000E-05   1.000000E-05   1.000000E-05   1.000000E-05   1.000000E-05   1.000000E-05   1.000000E-05   1.000000E-05   1.000000E-05   1.000000E-05   1.000000E-05   1.000000E-05   1.000000E-05   1.000000E-05
   1.000000E-03   1.000000E-03   1.000000E-03   1.000000E-03   1.000000E-05   1.000000E-05   1.000000E-05   1.000000E-05   1.000000E-05   1.000000E-05   1.000000E-05   1.000000E-05   1.000000E-05   1.000000E-05   1.000000E-05   1.000000E-05   1.000000E-05   1.000000E-05   1.000000E-05   1.000000E-05
   1.000000E-03   1.000000E-03   1.000000E-03   1.000000E-03   1.000000E-05   1.000000E-05   1.000000E-05   1.000000E-05   1.000000E-05   1.000000E-05   1.000000E-05   1.000000E-05   1.000000E-05   1.000000E-05   1.000000E-05   1.000000E-05   1.000000E-05   1.000000E-05   1.000000E-05   1.000000E-05
   1.000000E-03   1.000000E-03   1.000000E-03   1.000000E-03   1.000000E-05   1.000000E-05   1.000000E-05   1.000000E-05   1.000000E-05   1.000000E-05   1.000000E-05   1.000000E-05   1.000000E-05   1.000000E-05   1.000000E-05   1.000000E-05   1.000000E-05   1.000000E-05   1.000000E-05   1.000000E-05
   1.000000E-03   1.000000E-03   1.000000E-03   1.000000E-03   1.000000E-05   1.000000E-05   1.000000E-05   1.000000E-05   1.000000E-05   1.000000E-05   1.000000E-05   1.000000E-05   1.000000E-05   1.000000E-05   1.000000E-05   1.000000E-05   1.000000E-05   1.000000E-05   1.000000E-05   1.000000E-05
   1.000000E-03   1.000000E-03   1.000000E-03   1.000000E-03   1.000000E-05   1.000000E-05   1.000000E-05   1.000000E-05   1.000000E-05   1.000000E-05   1.000000E-05   1.000000E-05   1.000000E-05   1.000000E-05   1.000000E-05   1.000000E-05   1.000000E-05   1.000000E-05   1.000000E-05   1.000000E-05
   1.000000E-03   1.000000E-03   1.000000E-03   1.000000E-03   1.000000E-05   1.000000E-05   1.000000E-05   1.000000E-05   1.000000E-05   1.000000E-05   1.000000E-05   1.000000E-05   1.000000E-05   1.000000E-05   1.000000E-05   1.000000E-05   1.000000E-05   1.000000E-05   1.000000E-05   1.000000E-05
   1.000000E-03   1.000000E-03   1.000000E-03   1.000000E-03   1.000000E-05   1.000000E-05   1.000000E-05   1.000000E-05   1.000000E-05   1.000000E-05   1.000000E-05   1.000000E-05   1.000000E-05   1.000000E-05   1.000000E-05   1.000000E-05   1.000000E-05   1.000000E-05   1.000000E-05   1.000000E-05
   1.000000E-03   1.000000E-03   1.000000E-03   1.000000E-03   1.000000E-05   1.000000E-05   1.000000E-05   1.000000E-05   1.000000E-05   1.000000E-05   1.000000E-05   1.000000E-05   1.000000E-05   1.000000E-05   1.000000E-05   1.000000E-05   1.000000E-05   1.000000E-05   1.000000E-05   1.000000E-05
   1.000000E-03   1.000000E-03   1.000000E-03   1.000000E-03   1.000000E-05   1.000000E-05   1.000000E-05   1.000000E-05   1.000000E-05   1.000000E-05   1.000000E-05   1.000000E-05   1.000000E-05   1.000000E-05   1.000000E-05   1.000000E-05   1.000000E-05   1.000000E-05   1.000000E-05   1.000000E-05
   1.000000E-03   1.000000E-03   1.000000E-03   1.000000E-03   1.000000E-05   1.000000E-05   1.000000E-05   1.000000E-05   1.000000E-05   1.000000E-05   1.000000E-05   1.000000E-05   1.000000E-05   1.000000E-05   1.000000E-05   1.000000E-05   1.000000E-05   1.000000E-05   1.000000E-05   1.000000E-05
CONSTANT    1.000000E-02                           #sy                            
INTERNAL               1     (FREE) -1 #hk                            
   1.254442E+01   1.221091E+01   1.246752E+01   9.586080E+00   9.737280E+00   1.025914E+01   9.101376E+00   9.923903E+00   1.049414E+01   8.990784E+00   7.992000E+00   8.240054E+00   7.860067E+00   1.004918E+01   9.702720E+00   9.163584E+00   9.832320E+00   9.895391E+00   9.684576E+00   9.566208E+00
   1.284941E+01   1.278806E+01   9.029664E+00   1.000771E+01   9.114336E+00   9.578303E+00   9.143712E+00   9.774432E+00   1.029629E+01   8.516275E+00   7.944739E+00   8.709121E+00   7.981373E+00   9.063360E+00   1.030320E+01   9.294048E+00   7.051623E+00   9.840096E+00   1.011917E+01   8.793792E+00
   1.219622E+01   1.374451E+01   9.408960E+00   9.736416E+00   9.983520E+00   9.568800E+00   9.453024E+00   1.001549E+01   8.970048E+00   7.727270E+00   7.468935E+00   7.567257E+00   7.419773E+00   1.029542E+01   9.099648E+00   9.823680E+00   7.112707E+00   9.215425E+00   9.500544E+00   8.599824E+00
   9.284544E+00   8.101037E+00   9.982656E+00   1.023235E+01   9.759744E+00   9.821088E+00   9.311328E+00   9.316512E+00   9.535968E+00   7.799674E+00   7.374758E+00   8.164973E+00   8.072784E+00   8.710848E+00   8.518867E+00   7.079616E+00   7.347542E+00   9.804671E+00   9.168768E+00   9.296639E+00
   9.332064E+00   8.287920E+00   9.591264E+00   9.798624E+00   1.051661E+01   9.669888E+00   7.686922E+00   7.920461E+00   8.340883E+00   7.620134E+00   8.286451E+00   8.273750E+00   7.627651E+00   9.467712E+00   9.063360E+00   6.646060E+00   7.542460E+00   8.687520E+00   9.831456E+00   8.658144E+00
   9.550656E+00   7.179408E+00   8.512646E+00   7.996925E+00   7.041168E+00   7.929533E+00   7.599399E+00   7.946122E+00   8.148557E+00   7.474637E+00   7.595769E+00   7.908192E+00   8.174217E+00   9.535104E+00   8.545737E+00   7.499261E+00   8.150804E+00   9.472896E+00   9.402048E+00   8.746272E+00
   9.762336E+00   7.973510E+00   8.022326E+00   7.055079E+00   6.857827E+00   7.720099E+00   7.548336E+00   7.540905E+00   7.844170E+00   8.004528E+00   6.219418E+00   6.992179E+00   7.615728E+00   7.601386E+00   6.970148E+00   8.159012E+00   8.289389E+00   7.718544E+00   7.657027E+00   9.915264E+00
   9.421056E+00   7.770298E+00   8.141644E+00   9.815905E+00   9.439200E+00   9.394272E+00   9.720000E+00   6.912951E+00   7.512912E+00   7.464528E+00   5.826125E+00   7.291123E+00   8.405252E+00   7.874064E+00   7.921757E+00   8.606217E+00   7.002979E+00   7.283520E+00   8.446118E+00   9.361441E+00
   1.021680E+01   7.223213E+00   7.636983E+00   1.018656E+01   0.000000E+00   0.000000E+00   0.000000E+00   9.345024E+00   7.797513E+00   7.316179E+00   5.558544E+00   7.434374E+00   7.444915E+00   7.830605E+00   7.874669E+00   7.728135E+00   7.286371E+00   8.403264E+00   7.832247E+00   1.013645E+01
   9.326016E+00   8.194695E+00   7.882272E+00   9.351935E+00   0.000000E+00   0.000000E+00   0.000000E+00   0.000000E+00   1.003795E+01   7.311255E+00   6.452266E+00   7.333718E+00   7.164029E+00   7.518960E+00   7.939641E+00   8.073562E+00   8.675424E+00   7.679578E+00   8.122032E+00   9.854784E+00
   1.009325E+01   7.285680E+00   7.278163E+00   8.763552E+00   0.000000E+00   0.000000E+00   0.000000E+00   0.000000E+00   9.001152E+00   7.848749E+00   5.255021E+00   5.524761E+00   5.966265E+00   7.600348E+00   7.962451E+00   6.937056E+00   8.047987E+00   6.663168E+00   8.019734E+00   7.227273E+00
   1.012608E+01   8.253101E+00   7.664285E+00   8.717760E+00   0.000000E+00   0.000000E+00   0.000000E+00   0.000000E+00   9.421056E+00   7.777987E+00   6.349709E+00   6.518448E+00   6.022339E+00   6.962285E+00   8.037446E+00   5.392311E+00   9.021024E+00   7.053005E+00   7.945517E+00   8.921664E+00
   9.254304E+00   8.359718E+00   7.444483E+00   9.266400E+00   0.000000E+00   0.000000E+00   0.000000E+00   0.000000E+00   9.572256E+00   7.773494E+00   5.281719E+00   8.002714E+00   7.207661E+00   8.195818E+00   7.890307E+00   7.670506E+00   7.335014E+00   7.922707E+00   6.982934E+00   7.385817E+00
   9.374400E+00   7.581773E+00   7.029677E+00   1.021248E+01   0.000000E+00   0.000000E+00   0.000000E+00   0.000000E+00   8.967456E+00   7.576070E+00   6.078499E+00   5.954774E+00   5.704128E+00   7.901971E+00   8.625225E+00   6.784214E+00   8.389958E+00   7.510666E+00   8.593863E+00   7.513776E+00
   9.513504E+00   7.413724E+00   7.531315E+00   1.041898E+01   0.000000E+00   0.000000E+00   0.000000E+00   0.000000E+00   7.656595E+00   7.322400E+00   4.847558E+00   6.499181E+00   6.188573E+00   6.016464E+00   6.021907E+00   6.323616E+00   6.049383E+00   7.168522E+00   7.682256E+00   1.018483E+01
   8.930304E+00   7.942320E+00   7.989235E+00   9.096192E+00   0.000000E+00   0.000000E+00   0.000000E+00   0.000000E+00   7.639056E+00   5.814548E+00   4.100717E+00   5.678727E+00   6.288711E+00   6.043766E+00   6.215529E+00   5.860166E+00   6.642000E+00   8.168083E+00   8.095939E+00   9.104832E+00
   9.968832E+00   7.907846E+00   7.919165E+00   9.701856E+00   0.000000E+00   0.000000E+00   0.000000E+00   0.000000E+00   6.963063E+00   6.321370E+00   4.203965E+00   6.515165E+00   6.179414E+00   6.263309E+00   5.808240E+00   5.405875E+00   5.645117E+00   7.738848E+00   7.808660E+00   1.023494E+01