# MODFLOW-USG Block-Centered Transport (BCT) Package
 1 0 1 1 9 1 0   -1.000000e+00 1.000000e-06    1 0 1.944000e-02 0 0  0   0  0  0  1 TIMEWEIGHT 1.000000 A-W_ADSORB 1 1
INTERNAL  1.000000e+00  (FREE)  -1  Porosity Layer 1
 3.300000e-01 3.300000e-01 3.300000e-01 3.300000e-01
INTERNAL  1.000000e+00  (FREE)  -1  Porosity Layer 2
 3.300000e-01 3.300000e-01 3.300000e-01 3.300000e-01
INTERNAL  1.000000e+00  (FREE)  -1  Porosity Layer 3
 3.300000e-01 3.300000e-01 3.300000e-01 3.300000e-01
INTERNAL  1.000000e+00  (FREE)  -1  Porosity Layer 4
 3.300000e-01 3.300000e-01 3.300000e-01 3.300000e-01
INTERNAL  1.000000e+00  (FREE)  -1  Porosity Layer 5
 3.300000e-01 3.300000e-01 3.300000e-01 3.300000e-01
INTERNAL  1.000000e+00  (FREE)  -1  Porosity Layer 6
 3.300000e-01 3.300000e-01 3.300000e-01 3.300000e-01
INTERNAL  1.000000e+00  (FREE)  -1  Porosity Layer 7
 3.300000e-01 3.300000e-01 3.300000e-01 3.300000e-01
INTERNAL  1.000000e+00  (FREE)  -1  Porosity Layer 8
 3.300000e-01 3.300000e-01 3.300000e-01 3.300000e-01
INTERNAL  1.000000e+00  (FREE)  -1  Porosity Layer 9
 3.300000e-01 3.300000e-01 3.300000e-01 3.300000e-01
INTERNAL  1.000000e+00  (FREE)  -1  Porosity Layer 10
 3.300000e-01 3.300000e-01 3.300000e-01 3.300000e-01
INTERNAL  1.000000e+00  (FREE)  -1  Porosity Layer 11
 3.300000e-01 3.300000e-01 3.300000e-01 3.300000e-01
INTERNAL  1.000000e+00  (FREE)  -1  Porosity Layer 12
 3.300000e-01 3.300000e-01 3.300000e-01 3.300000e-01
INTERNAL  1.000000e+00  (FREE)  -1  Porosity Layer 13
 3.300000e-01 3.300000e-01 3.300000e-01 3.300000e-01
INTERNAL  1.000000e+00  (FREE)  -1  Porosity Layer 14
 3.300000e-01 3.300000e-01 3.300000e-01 3.300000e-01
INTERNAL  1.000000e+00  (FREE)  -1  Porosity Layer 15
 3.300000e-01 3.300000e-01 3.300000e-01 3.300000e-01
INTERNAL  1.000000e+00  (FREE)  -1  Porosity Layer 16
 3.300000e-01 3.300000e-01 3.300000e-01 3.300000e-01
INTERNAL  1.000000e+00  (FREE)  -1  Porosity Layer 17
 3.300000e-01 3.300000e-01 3.300000e-01 3.300000e-01
INTERNAL  1.000000e+00  (FREE)  -1  Porosity Layer 18
 3.300000e-01 3.300000e-01 3.300000e-01 3.300000e-01
INTERNAL  1.000000e+00  (FREE)  -1  Porosity Layer 19
 3.300000e-01 3.300000e-01 3.300000e-01 3.300000e-01
INTERNAL  1.000000e+00  (FREE)  -1  Porosity Layer 20
 3.300000e-01 3.300000e-01 3.300000e-01 3.300000e-01
INTERNAL  1.000000e+00  (FREE)  -1  Porosity Layer 21
 3.300000e-01 3.300000e-01 3.300000e-01 3.300000e-01
INTERNAL  1.000000e+00  (FREE)  -1  Porosity Layer 22
 3.300000e-01 3.300000e-01 3.300000e-01 3.300000e-01
INTERNAL  1.000000e+00  (FREE)  -1  Porosity Layer 23
 3.300000e-01 3.300000e-01 3.300000e-01 3.300000e-01
INTERNAL  1.000000e+00  (FREE)  -1  Porosity Layer 24
 3.300000e-01 3.300000e-01 3.300000e-01 3.300000e-01
INTERNAL  1.000000e+00  (FREE)  -1  Porosity Layer 25
 3.300000e-01 3.300000e-01 3.300000e-01 3.300000e-01
INTERNAL  1.000000e+00  (FREE)  -1  Porosity Layer 26
 3.300000e-01 3.300000e-01 3.300000e-01 3.300000e-01
INTERNAL  1.000000e+00  (FREE)  -1  Porosity Layer 27
 3.300000e-01 3.300000e-01 3.300000e-01 3.300000e-01
INTERNAL  1.000000e+00  (FREE)  -1  Porosity Layer 28
 3.300000e-01 3.300000e-01 3.300000e-01 3.300000e-01
INTERNAL  1.000000e+00  (FREE)  -1  Porosity Layer 29
 3.300000e-01 3.300000e-01 3.300000e-01 3.300000e-01
INTERNAL  1.000000e+00  (FREE)  -1  Porosity Layer 30
 3.300000e-01 3.300000e-01 3.300000e-01 3.300000e-01
INTERNAL  1.000000e+00  (FREE)  -1  BULKD Layer 1
 1.500000e+00 1.500000e+00 1.500000e+00 1.500000e+00
INTERNAL  1.000000e+00  (FREE)  -1  BULKD Layer 2
 1.500000e+00 1.500000e+00 1.500000e+00 1.500000e+00
INTERNAL  1.000000e+00  (FREE)  -1  BULKD Layer 3
 1.500000e+00 1.500000e+00 1.500000e+00 1.500000e+00
INTERNAL  1.000000e+00  (FREE)  -1  BULKD Layer 4
 1.500000e+00 1.500000e+00 1.500000e+00 1.500000e+00
INTERNAL  1.000000e+00  (FREE)  -1  BULKD Layer 5
 1.500000e+00 1.500000e+00 1.500000e+00 1.500000e+00
INTERNAL  1.000000e+00  (FREE)  -1  BULKD Layer 6
 1.500000e+00 1.500000e+00 1.500000e+00 1.500000e+00
INTERNAL  1.000000e+00  (FREE)  -1  BULKD Layer 7
 1.500000e+00 1.500000e+00 1.500000e+00 1.500000e+00
INTERNAL  1.000000e+00  (FREE)  -1  BULKD Layer 8
 1.500000e+00 1.500000e+00 1.500000e+00 1.500000e+00
INTERNAL  1.000000e+00  (FREE)  -1  BULKD Layer 9
 1.500000e+00 1.500000e+00 1.500000e+00 1.500000e+00
INTERNAL  1.000000e+00  (FREE)  -1  BULKD Layer 10
 1.500000e+00 1.500000e+00 1.500000e+00 1.500000e+00
INTERNAL  1.000000e+00  (FREE)  -1  BULKD Layer 11
 1.500000e+00 1.500000e+00 1.500000e+00 1.500000e+00
INTERNAL  1.000000e+00  (FREE)  -1  BULKD Layer 12
 1.500000e+00 1.500000e+00 1.500000e+00 1.500000e+00
INTERNAL  1.000000e+00  (FREE)  -1  BULKD Layer 13
 1.500000e+00 1.500000e+00 1.500000e+00 1.500000e+00
INTERNAL  1.000000e+00  (FREE)  -1  BULKD Layer 14
 1.500000e+00 1.500000e+00 1.500000e+00 1.500000e+00
INTERNAL  1.000000e+00  (FREE)  -1  BULKD Layer 15
 1.500000e+00 1.500000e+00 1.500000e+00 1.500000e+00
INTERNAL  1.000000e+00  (FREE)  -1  BULKD Layer 16
 1.500000e+00 1.500000e+00 1.500000e+00 1.500000e+00
INTERNAL  1.000000e+00  (FREE)  -1  BULKD Layer 17
 1.500000e+00 1.500000e+00 1.500000e+00 1.500000e+00
INTERNAL  1.000000e+00  (FREE)  -1  BULKD Layer 18
 1.500000e+00 1.500000e+00 1.500000e+00 1.500000e+00
INTERNAL  1.000000e+00  (FREE)  -1  BULKD Layer 19
 1.500000e+00 1.500000e+00 1.500000e+00 1.500000e+00
INTERNAL  1.000000e+00  (FREE)  -1  BULKD Layer 20
 1.500000e+00 1.500000e+00 1.500000e+00 1.500000e+00
INTERNAL  1.000000e+00  (FREE)  -1  BULKD Layer 21
 1.500000e+00 1.500000e+00 1.500000e+00 1.500000e+00
INTERNAL  1.000000e+00  (FREE)  -1  BULKD Layer 22
 1.500000e+00 1.500000e+00 1.500000e+00 1.500000e+00
INTERNAL  1.000000e+00  (FREE)  -1  BULKD Layer 23
 1.500000e+00 1.500000e+00 1.500000e+00 1.500000e+00
INTERNAL  1.000000e+00  (FREE)  -1  BULKD Layer 24
 1.500000e+00 1.500000e+00 1.500000e+00 1.500000e+00
INTERNAL  1.000000e+00  (FREE)  -1  BULKD Layer 25
 1.500000e+00 1.500000e+00 1.500000e+00 1.500000e+00
INTERNAL  1.000000e+00  (FREE)  -1  BULKD Layer 26
 1.500000e+00 1.500000e+00 1.500000e+00 1.500000e+00
INTERNAL  1.000000e+00  (FREE)  -1  BULKD Layer 27
 1.500000e+00 1.500000e+00 1.500000e+00 1.500000e+00
INTERNAL  1.000000e+00  (FREE)  -1  BULKD Layer 28
 1.500000e+00 1.500000e+00 1.500000e+00 1.500000e+00
INTERNAL  1.000000e+00  (FREE)  -1  BULKD Layer 29
 1.500000e+00 1.500000e+00 1.500000e+00 1.500000e+00
INTERNAL  1.000000e+00  (FREE)  -1  BULKD Layer 30
 1.500000e+00 1.500000e+00 1.500000e+00 1.500000e+00
INTERNAL  1.0  (FREE)  -1  ANGLEX by NJAG
 0.000000e+00 0.000000e+00 1.570796e+00 0.000000e+00
 0.000000e+00 3.141593e+00 1.570796e+00 0.000000e+00
 0.000000e+00 4.712389e+00 0.000000e+00 0.000000e+00
 0.000000e+00 4.712389e+00 3.141593e+00 0.000000e+00
 0.000000e+00 0.000000e+00 0.000000e+00 1.570796e+00 0.000000e+00
 0.000000e+00 0.000000e+00 3.141593e+00 1.570796e+00 0.000000e+00
 0.000000e+00 0.000000e+00 4.712389e+00 0.000000e+00 0.000000e+00
 0.000000e+00 0.000000e+00 4.712389e+00 3.141593e+00 0.000000e+00
 0.000000e+00 0.000000e+00 0.000000e+00 1.570796e+00 0.000000e+00
 0.000000e+00 0.000000e+00 3.141593e+00 1.570796e+00 0.000000e+00
 0.000000e+00 0.000000e+00 4.712389e+00 0.000000e+00 0.000000e+00
 0.000000e+00 0.000000e+00 4.712389e+00 3.141593e+00 0.000000e+00
 0.000000e+00 0.000000e+00 0.000000e+00 1.570796e+00 0.000000e+00
 0.000000e+00 0.000000e+00 3.141593e+00 1.570796e+00 0.000000e+00
 0.000000e+00 0.000000e+00 4.712389e+00 0.000000e+00 0.000000e+00
 0.000000e+00 0.000000e+00 4.712389e+00 3.141593e+00 0.000000e+00
 0.000000e+00 0.000000e+00 0.000000e+00 1.570796e+00 0.000000e+00
 0.000000e+00 0.000000e+00 3.141593e+00 1.570796e+00 0.000000e+00
 0.000000e+00 0.000000e+00 4.712389e+00 0.000000e+00 0.000000e+00
 0.000000e+00 0.000000e+00 4.712389e+00 3.141593e+00 0.000000e+00
 0.000000e+00 0.000000e+00 0.000000e+00 1.570796e+00 0.000000e+00
 0.000000e+00 0.000000e+00 3.141593e+00 1.570796e+00 0.000000e+00
 0.000000e+00 0.000000e+00 4.712389e+00 0.000000e+00 0.000000e+00
 0.000000e+00 0.000000e+00 4.712389e+00 3.141593e+00 0.000000e+00
 0.000000e+00 0.000000e+00 0.000000e+00 1.570796e+00 0.000000e+00
 0.000000e+00 0.000000e+00 3.141593e+00 1.570796e+00 0.000000e+00
 0.000000e+00 0.000000e+00 4.712389e+00 0.000000e+00 0.000000e+00
 0.000000e+00 0.000000e+00 4.712389e+00 3.141593e+00 0.000000e+00
 0.000000e+00 0.000000e+00 0.000000e+00 1.570796e+00 0.000000e+00
 0.000000e+00 0.000000e+00 3.141593e+00 1.570796e+00 0.000000e+00
 0.000000e+00 0.000000e+00 4.712389e+00 0.000000e+00 0.000000e+00
 0.000000e+00 0.000000e+00 4.712389e+00 3.141593e+00 0.000000e+00
 0.000000e+00 0.000000e+00 0.000000e+00 1.570796e+00 0.000000e+00
 0.000000e+00 0.000000e+00 3.141593e+00 1.570796e+00 0.000000e+00
 0.000000e+00 0.000000e+00 4.712389e+00 0.000000e+00 0.000000e+00
 0.000000e+00 0.000000e+00 4.712389e+00 3.141593e+00 0.000000e+00
 0.000000e+00 0.000000e+00 0.000000e+00 1.570796e+00 0.000000e+00
 0.000000e+00 0.000000e+00 3.141593e+00 1.570796e+00 0.000000e+00
 0.000000e+00 0.000000e+00 4.712389e+00 0.000000e+00 0.000000e+00
 0.000000e+00 0.000000e+00 4.712389e+00 3.141593e+00 0.000000e+00
 0.000000e+00 0.000000e+00 0.000000e+00 1.570796e+00 0.000000e+00
 0.000000e+00 0.000000e+00 3.141593e+00 1.570796e+00 0.000000e+00
 0.000000e+00 0.000000e+00 4.712389e+00 0.000000e+00 0.000000e+00
 0.000000e+00 0.000000e+00 4.712389e+00 3.141593e+00 0.000000e+00
 0.000000e+00 0.000000e+00 0.000000e+00 1.570796e+00 0.000000e+00
 0.000000e+00 0.000000e+00 3.141593e+00 1.570796e+00 0.000000e+00
 0.000000e+00 0.000000e+00 4.712389e+00 0.000000e+00 0.000000e+00
 0.000000e+00 0.000000e+00 4.712389e+00 3.141593e+00 0.000000e+00
 0.000000e+00 0.000000e+00 0.000000e+00 1.570796e+00 0.000000e+00
 0.000000e+00 0.000000e+00 3.141593e+00 1.570796e+00 0.000000e+00
 0.000000e+00 0.000000e+00 4.712389e+00 0.000000e+00 0.000000e+00
 0.000000e+00 0.000000e+00 4.712389e+00 3.141593e+00 0.000000e+00
 0.000000e+00 0.000000e+00 0.000000e+00 1.570796e+00 0.000000e+00
 0.000000e+00 0.000000e+00 3.141593e+00 1.570796e+00 0.000000e+00
 0.000000e+00 0.000000e+00 4.712389e+00 0.000000e+00 0.000000e+00
 0.000000e+00 0.000000e+00 4.712389e+00 3.141593e+00 0.000000e+00
 0.000000e+00 0.000000e+00 0.000000e+00 1.570796e+00 0.000000e+00
 0.000000e+00 0.000000e+00 3.141593e+00 1.570796e+00 0.000000e+00
 0.000000e+00 0.000000e+00 4.712389e+00 0.000000e+00 0.000000e+00
 0.000000e+00 0.000000e+00 4.712389e+00 3.141593e+00 0.000000e+00
 0.000000e+00 0.000000e+00 0.000000e+00 1.570796e+00 0.000000e+00
 0.000000e+00 0.000000e+00 3.141593e+00 1.570796e+00 0.000000e+00
 0.000000e+00 0.000000e+00 4.712389e+00 0.000000e+00 0.000000e+00
 0.000000e+00 0.000000e+00 4.712389e+00 3.141593e+00 0.000000e+00
 0.000000e+00 0.000000e+00 0.000000e+00 1.570796e+00 0.000000e+00
 0.000000e+00 0.000000e+00 3.141593e+00 1.570796e+00 0.000000e+00
 0.000000e+00 0.000000e+00 4.712389e+00 0.000000e+00 0.000000e+00
 0.000000e+00 0.000000e+00 4.712389e+00 3.141593e+00 0.000000e+00
 0.000000e+00 0.000000e+00 0.000000e+00 1.570796e+00 0.000000e+00
 0.000000e+00 0.000000e+00 3.141593e+00 1.570796e+00 0.000000e+00
 0.000000e+00 0.000000e+00 4.712389e+00 0.000000e+00 0.000000e+00
 0.000000e+00 0.000000e+00 4.712389e+00 3.141593e+00 0.000000e+00
 0.000000e+00 0.000000e+00 0.000000e+00 1.570796e+00 0.000000e+00
 0.000000e+00 0.000000e+00 3.141593e+00 1.570796e+00 0.000000e+00
 0.000000e+00 0.000000e+00 4.712389e+00 0.000000e+00 0.000000e+00
 0.000000e+00 0.000000e+00 4.712389e+00 3.141593e+00 0.000000e+00
 0.000000e+00 0.000000e+00 0.000000e+00 1.570796e+00 0.000000e+00
 0.000000e+00 0.000000e+00 3.141593e+00 1.570796e+00 0.000000e+00
 0.000000e+00 0.000000e+00 4.712389e+00 0.000000e+00 0.000000e+00
 0.000000e+00 0.000000e+00 4.712389e+00 3.141593e+00 0.000000e+00
 0.000000e+00 0.000000e+00 0.000000e+00 1.570796e+00 0.000000e+00
 0.000000e+00 0.000000e+00 3.141593e+00 1.570796e+00 0.000000e+00
 0.000000e+00 0.000000e+00 4.712389e+00 0.000000e+00 0.000000e+00
 0.000000e+00 0.000000e+00 4.712389e+00 3.141593e+00 0.000000e+00
 0.000000e+00 0.000000e+00 0.000000e+00 1.570796e+00 0.000000e+00
 0.000000e+00 0.000000e+00 3.141593e+00 1.570796e+00 0.000000e+00
 0.000000e+00 0.000000e+00 4.712389e+00 0.000000e+00 0.000000e+00
 0.000000e+00 0.000000e+00 4.712389e+00 3.141593e+00 0.000000e+00
 0.000000e+00 0.000000e+00 0.000000e+00 1.570796e+00 0.000000e+00
 0.000000e+00 0.000000e+00 3.141593e+00 1.570796e+00 0.000000e+00
 0.000000e+00 0.000000e+00 4.712389e+00 0.000000e+00 0.000000e+00
 0.000000e+00 0.000000e+00 4.712389e+00 3.141593e+00 0.000000e+00
 0.000000e+00 0.000000e+00 0.000000e+00 1.570796e+00 0.000000e+00
 0.000000e+00 0.000000e+00 3.141593e+00 1.570796e+00 0.000000e+00
 0.000000e+00 0.000000e+00 4.712389e+00 0.000000e+00 0.000000e+00
 0.000000e+00 0.000000e+00 4.712389e+00 3.141593e+00 0.000000e+00
 0.000000e+00 0.000000e+00 0.000000e+00 1.570796e+00 0.000000e+00
 0.000000e+00 0.000000e+00 3.141593e+00 1.570796e+00 0.000000e+00
 0.000000e+00 0.000000e+00 4.712389e+00 0.000000e+00 0.000000e+00
 0.000000e+00 0.000000e+00 4.712389e+00 3.141593e+00 0.000000e+00
 0.000000e+00 0.000000e+00 0.000000e+00 1.570796e+00 0.000000e+00
 0.000000e+00 0.000000e+00 3.141593e+00 1.570796e+00 0.000000e+00
 0.000000e+00 0.000000e+00 4.712389e+00 0.000000e+00 0.000000e+00
 0.000000e+00 0.000000e+00 4.712389e+00 3.141593e+00 0.000000e+00
 0.000000e+00 0.000000e+00 0.000000e+00 1.570796e+00 0.000000e+00
 0.000000e+00 0.000000e+00 3.141593e+00 1.570796e+00 0.000000e+00
 0.000000e+00 0.000000e+00 4.712389e+00 0.000000e+00 0.000000e+00
 0.000000e+00 0.000000e+00 4.712389e+00 3.141593e+00 0.000000e+00
 0.000000e+00 0.000000e+00 0.000000e+00 1.570796e+00 0.000000e+00
 0.000000e+00 0.000000e+00 3.141593e+00 1.570796e+00 0.000000e+00
 0.000000e+00 0.000000e+00 4.712389e+00 0.000000e+00 0.000000e+00
 0.000000e+00 0.000000e+00 4.712389e+00 3.141593e+00 0.000000e+00
 0.000000e+00 0.000000e+00 0.000000e+00 1.570796e+00 0.000000e+00
 0.000000e+00 0.000000e+00 3.141593e+00 1.570796e+00 0.000000e+00
 0.000000e+00 0.000000e+00 4.712389e+00 0.000000e+00 0.000000e+00
 0.000000e+00 0.000000e+00 4.712389e+00 3.141593e+00 0.000000e+00
 0.000000e+00 0.000000e+00 0.000000e+00 1.570796e+00
 0.000000e+00 0.000000e+00 3.141593e+00 1.570796e+00
 0.000000e+00 0.000000e+00 4.712389e+00 0.000000e+00
 0.000000e+00 0.000000e+00 4.712389e+00 3.141593e+00
CONSTANT  0.700000e+00              DL Layer 1
CONSTANT  0.700000e+00              DL Layer 2
CONSTANT  0.700000e+00              DL Layer 3
CONSTANT  0.700000e+00              DL Layer 4
CONSTANT  0.700000e+00              DL Layer 5
CONSTANT  0.700000e+00              DL Layer 6
CONSTANT  0.700000e+00              DL Layer 7
CONSTANT  0.700000e+00              DL Layer 8
CONSTANT  0.700000e+00              DL Layer 9
CONSTANT  0.700000e+00              DL Layer 10
CONSTANT  0.700000e+00              DL Layer 11
CONSTANT  0.700000e+00              DL Layer 12
CONSTANT  0.700000e+00              DL Layer 13
CONSTANT  0.700000e+00              DL Layer 14
CONSTANT  0.700000e+00              DL Layer 15
CONSTANT  0.700000e+00              DL Layer 16
CONSTANT  0.700000e+00              DL Layer 17
CONSTANT  0.700000e+00              DL Layer 18
CONSTANT  0.700000e+00              DL Layer 19
CONSTANT  0.700000e+00              DL Layer 20
CONSTANT  0.700000e+00              DL Layer 21
CONSTANT  0.700000e+00              DL Layer 22
CONSTANT  0.700000e+00              DL Layer 23
CONSTANT  0.700000e+00              DL Layer 24
CONSTANT  0.700000e+00              DL Layer 25
CONSTANT  0.700000e+00              DL Layer 26
CONSTANT  0.700000e+00              DL Layer 27
CONSTANT  0.700000e+00              DL Layer 28
CONSTANT  0.700000e+00              DL Layer 29
CONSTANT  0.700000e+00              DL Layer 30
CONSTANT  0.000000e+00              DT Layer 1
CONSTANT  0.000000e+00              DT Layer 2
CONSTANT  0.000000e+00              DT Layer 3
CONSTANT  0.000000e+00              DT Layer 4
CONSTANT  0.000000e+00              DT Layer 5
CONSTANT  0.000000e+00              DT Layer 6
CONSTANT  0.000000e+00              DT Layer 7
CONSTANT  0.000000e+00              DT Layer 8
CONSTANT  0.000000e+00              DT Layer 9
CONSTANT  0.000000e+00              DT Layer 10
CONSTANT  0.000000e+00              DT Layer 11
CONSTANT  0.000000e+00              DT Layer 12
CONSTANT  0.000000e+00              DT Layer 13
CONSTANT  0.000000e+00              DT Layer 14
CONSTANT  0.000000e+00              DT Layer 15
CONSTANT  0.000000e+00              DT Layer 16
CONSTANT  0.000000e+00              DT Layer 17
CONSTANT  0.000000e+00              DT Layer 18
CONSTANT  0.000000e+00              DT Layer 19
CONSTANT  0.000000e+00              DT Layer 20
CONSTANT  0.000000e+00              DT Layer 21
CONSTANT  0.000000e+00              DT Layer 22
CONSTANT  0.000000e+00              DT Layer 23
CONSTANT  0.000000e+00              DT Layer 24
CONSTANT  0.000000e+00              DT Layer 25
CONSTANT  0.000000e+00              DT Layer 26
CONSTANT  0.000000e+00              DT Layer 27
CONSTANT  0.000000e+00              DT Layer 28
CONSTANT  0.000000e+00              DT Layer 29
CONSTANT  0.000000e+00              DT Layer 30
CONSTANT  216.0000e+00              AWAMAX Layer 1
CONSTANT  216.0000e+00              AWAMAX Layer 2
CONSTANT  216.0000e+00              AWAMAX Layer 3
CONSTANT  216.0000e+00              AWAMAX Layer 4
CONSTANT  216.0000e+00              AWAMAX Layer 5
CONSTANT  216.0000e+00              AWAMAX Layer 6
CONSTANT  216.0000e+00              AWAMAX Layer 7
CONSTANT  216.0000e+00              AWAMAX Layer 8
CONSTANT  216.0000e+00              AWAMAX Layer 9
CONSTANT  216.0000e+00              AWAMAX Layer 10
CONSTANT  216.0000e+00              AWAMAX Layer 11
CONSTANT  216.0000e+00              AWAMAX Layer 12
CONSTANT  216.0000e+00              AWAMAX Layer 13
CONSTANT  216.0000e+00              AWAMAX Layer 14
CONSTANT  216.0000e+00              AWAMAX Layer 15
CONSTANT  216.0000e+00              AWAMAX Layer 16
CONSTANT  216.0000e+00              AWAMAX Layer 17
CONSTANT  216.0000e+00              AWAMAX Layer 18
CONSTANT  216.0000e+00              AWAMAX Layer 19
CONSTANT  216.0000e+00              AWAMAX Layer 20
CONSTANT  216.0000e+00              AWAMAX Layer 21
CONSTANT  216.0000e+00              AWAMAX Layer 22
CONSTANT  216.0000e+00              AWAMAX Layer 23
CONSTANT  216.0000e+00              AWAMAX Layer 24
CONSTANT  216.0000e+00              AWAMAX Layer 25
CONSTANT  216.0000e+00              AWAMAX Layer 26
CONSTANT  216.0000e+00              AWAMAX Layer 27
CONSTANT  216.0000e+00              AWAMAX Layer 28
CONSTANT  216.0000e+00              AWAMAX Layer 29
CONSTANT  216.0000e+00              AWAMAX Layer 30
CONSTANT  0.0040e+00               ALANG Layer 1
CONSTANT  0.0040e+00               ALANG Layer 2
CONSTANT  0.0040e+00               ALANG Layer 3
CONSTANT  0.0040e+00               ALANG Layer 4
CONSTANT  0.0040e+00               ALANG Layer 5
CONSTANT  0.0040e+00               ALANG Layer 6
CONSTANT  0.0040e+00               ALANG Layer 7
CONSTANT  0.0040e+00               ALANG Layer 8
CONSTANT  0.0040e+00               ALANG Layer 9
CONSTANT  0.0040e+00               ALANG Layer 10
CONSTANT  0.0040e+00               ALANG Layer 11
CONSTANT  0.0040e+00               ALANG Layer 12
CONSTANT  0.0040e+00               ALANG Layer 13
CONSTANT  0.0040e+00               ALANG Layer 14
CONSTANT  0.0040e+00               ALANG Layer 15
CONSTANT  0.0040e+00               ALANG Layer 16
CONSTANT  0.0040e+00               ALANG Layer 17
CONSTANT  0.0040e+00               ALANG Layer 18
CONSTANT  0.0040e+00               ALANG Layer 19
CONSTANT  0.0040e+00               ALANG Layer 20
CONSTANT  0.0040e+00               ALANG Layer 21
CONSTANT  0.0040e+00               ALANG Layer 22
CONSTANT  0.0040e+00               ALANG Layer 23
CONSTANT  0.0040e+00               ALANG Layer 24
CONSTANT  0.0040e+00               ALANG Layer 25
CONSTANT  0.0040e+00               ALANG Layer 26
CONSTANT  0.0040e+00               ALANG Layer 27
CONSTANT  0.0040e+00               ALANG Layer 28
CONSTANT  0.0040e+00               ALANG Layer 29
CONSTANT  0.0040e+00               ALANG Layer 30
CONSTANT  0.000000e+00               BLANG Layer 1     LANGMUIR B IS 0 FOR LINEAR
CONSTANT  0.000000e+00               BLANG Layer 2     LANGMUIR B IS 0 FOR LINEAR
CONSTANT  0.000000e+00               BLANG Layer 3     LANGMUIR B IS 0 FOR LINEAR
CONSTANT  0.000000e+00               BLANG Layer 4     LANGMUIR B IS 0 FOR LINEAR
CONSTANT  0.000000e+00               BLANG Layer 5     LANGMUIR B IS 0 FOR LINEAR
CONSTANT  0.000000e+00               BLANG Layer 6     LANGMUIR B IS 0 FOR LINEAR
CONSTANT  0.000000e+00               BLANG Layer 7     LANGMUIR B IS 0 FOR LINEAR
CONSTANT  0.000000e+00               BLANG Layer 8     LANGMUIR B IS 0 FOR LINEAR
CONSTANT  0.000000e+00               BLANG Layer 9     LANGMUIR B IS 0 FOR LINEAR
CONSTANT  0.000000e+00               BLANG Layer 10    LANGMUIR B IS 0 FOR LINEAR
CONSTANT  0.000000e+00               BLANG Layer 11    LANGMUIR B IS 0 FOR LINEAR
CONSTANT  0.000000e+00               BLANG Layer 12    LANGMUIR B IS 0 FOR LINEAR
CONSTANT  0.000000e+00               BLANG Layer 13    LANGMUIR B IS 0 FOR LINEAR
CONSTANT  0.000000e+00               BLANG Layer 14    LANGMUIR B IS 0 FOR LINEAR
CONSTANT  0.000000e+00               BLANG Layer 15    LANGMUIR B IS 0 FOR LINEAR
CONSTANT  0.000000e+00               BLANG Layer 16    LANGMUIR B IS 0 FOR LINEAR
CONSTANT  0.000000e+00               BLANG Layer 17    LANGMUIR B IS 0 FOR LINEAR
CONSTANT  0.000000e+00               BLANG Layer 18    LANGMUIR B IS 0 FOR LINEAR
CONSTANT  0.000000e+00               BLANG Layer 19    LANGMUIR B IS 0 FOR LINEAR
CONSTANT  0.000000e+00               BLANG Layer 20    LANGMUIR B IS 0 FOR LINEAR
CONSTANT  0.000000e+00               BLANG Layer 21    LANGMUIR B IS 0 FOR LINEAR
CONSTANT  0.000000e+00               BLANG Layer 22    LANGMUIR B IS 0 FOR LINEAR
CONSTANT  0.000000e+00               BLANG Layer 23    LANGMUIR B IS 0 FOR LINEAR
CONSTANT  0.000000e+00               BLANG Layer 24    LANGMUIR B IS 0 FOR LINEAR
CONSTANT  0.000000e+00               BLANG Layer 25    LANGMUIR B IS 0 FOR LINEAR
CONSTANT  0.000000e+00               BLANG Layer 26    LANGMUIR B IS 0 FOR LINEAR
CONSTANT  0.000000e+00               BLANG Layer 27    LANGMUIR B IS 0 FOR LINEAR
CONSTANT  0.000000e+00               BLANG Layer 28    LANGMUIR B IS 0 FOR LINEAR
CONSTANT  0.000000e+00               BLANG Layer 29    LANGMUIR B IS 0 FOR LINEAR
CONSTANT  0.000000e+00               BLANG Layer 30    LANGMUIR B IS 0 FOR LINEAR
INTERNAL  1.000000e+00  (FREE)  -1  ADSORB Species 1 Layer 1
 8.000000e-02 8.000000e-02 8.000000e-02 8.000000e-02
INTERNAL  1.000000e+00  (FREE)  -1  ADSORB Species 1 Layer 2
 8.000000e-02 8.000000e-02 8.000000e-02 8.000000e-02
INTERNAL  1.000000e+00  (FREE)  -1  ADSORB Species 1 Layer 3
 8.000000e-02 8.000000e-02 8.000000e-02 8.000000e-02
INTERNAL  1.000000e+00  (FREE)  -1  ADSORB Species 1 Layer 4
 8.000000e-02 8.000000e-02 8.000000e-02 8.000000e-02
INTERNAL  1.000000e+00  (FREE)  -1  ADSORB Species 1 Layer 5
 8.000000e-02 8.000000e-02 8.000000e-02 8.000000e-02
INTERNAL  1.000000e+00  (FREE)  -1  ADSORB Species 1 Layer 6
 8.000000e-02 8.000000e-02 8.000000e-02 8.000000e-02
INTERNAL  1.000000e+00  (FREE)  -1  ADSORB Species 1 Layer 7
 8.000000e-02 8.000000e-02 8.000000e-02 8.000000e-02
INTERNAL  1.000000e+00  (FREE)  -1  ADSORB Species 1 Layer 8
 8.000000e-02 8.000000e-02 8.000000e-02 8.000000e-02
INTERNAL  1.000000e+00  (FREE)  -1  ADSORB Species 1 Layer 9
 8.000000e-02 8.000000e-02 8.000000e-02 8.000000e-02
INTERNAL  1.000000e+00  (FREE)  -1  ADSORB Species 1 Layer 10
 8.000000e-02 8.000000e-02 8.000000e-02 8.000000e-02
INTERNAL  1.000000e+00  (FREE)  -1  ADSORB Species 1 Layer 11
 8.000000e-02 8.000000e-02 8.000000e-02 8.000000e-02
INTERNAL  1.000000e+00  (FREE)  -1  ADSORB Species 1 Layer 12
 8.000000e-02 8.000000e-02 8.000000e-02 8.000000e-02
INTERNAL  1.000000e+00  (FREE)  -1  ADSORB Species 1 Layer 13
 8.000000e-02 8.000000e-02 8.000000e-02 8.000000e-02
INTERNAL  1.000000e+00  (FREE)  -1  ADSORB Species 1 Layer 14
 8.000000e-02 8.000000e-02 8.000000e-02 8.000000e-02
INTERNAL  1.000000e+00  (FREE)  -1  ADSORB Species 1 Layer 15
 8.000000e-02 8.000000e-02 8.000000e-02 8.000000e-02
INTERNAL  1.000000e+00  (FREE)  -1  ADSORB Species 1 Layer 16
 8.000000e-02 8.000000e-02 8.000000e-02 8.000000e-02
INTERNAL  1.000000e+00  (FREE)  -1  ADSORB Species 1 Layer 17
 8.000000e-02 8.000000e-02 8.000000e-02 8.000000e-02
INTERNAL  1.000000e+00  (FREE)  -1  ADSORB Species 1 Layer 18
 8.000000e-02 8.000000e-02 8.000000e-02 8.000000e-02
INTERNAL  1.000000e+00  (FREE)  -1  ADSORB Species 1 Layer 19
 8.000000e-02 8.000000e-02 8.000000e-02 8.000000e-02
INTERNAL  1.000000e+00  (FREE)  -1  ADSORB Species 1 Layer 20
 8.000000e-02 8.000000e-02 8.000000e-02 8.000000e-02
INTERNAL  1.000000e+00  (FREE)  -1  ADSORB Species 1 Layer 21
 8.000000e-02 8.000000e-02 8.000000e-02 8.000000e-02
INTERNAL  1.000000e+00  (FREE)  -1  ADSORB Species 1 Layer 22
 8.000000e-02 8.000000e-02 8.000000e-02 8.000000e-02
INTERNAL  1.000000e+00  (FREE)  -1  ADSORB Species 1 Layer 23
 8.000000e-02 8.000000e-02 8.000000e-02 8.000000e-02
INTERNAL  1.000000e+00  (FREE)  -1  ADSORB Species 1 Layer 24
 8.000000e-02 8.000000e-02 8.000000e-02 8.000000e-02
INTERNAL  1.000000e+00  (FREE)  -1  ADSORB Species 1 Layer 25
 8.000000e-02 8.000000e-02 8.000000e-02 8.000000e-02
INTERNAL  1.000000e+00  (FREE)  -1  ADSORB Species 1 Layer 26
 8.000000e-02 8.000000e-02 8.000000e-02 8.000000e-02
INTERNAL  1.000000e+00  (FREE)  -1  ADSORB Species 1 Layer 27
 8.000000e-02 8.000000e-02 8.000000e-02 8.000000e-02
INTERNAL  1.000000e+00  (FREE)  -1  ADSORB Species 1 Layer 28
 8.000000e-02 8.000000e-02 8.000000e-02 8.000000e-02
INTERNAL  1.000000e+00  (FREE)  -1  ADSORB Species 1 Layer 29
 8.000000e-02 8.000000e-02 8.000000e-02 8.000000e-02
INTERNAL  1.000000e+00  (FREE)  -1  ADSORB Species 1 Layer 30
 8.000000e-02 8.000000e-02 8.000000e-02 8.000000e-02
INTERNAL  1.000000e+00  (FREE)  -1  CONC Species 1 Layer 1
 0.000000e+00 0.000000e+00 0.000000e+00 0.000000e+00
INTERNAL  1.000000e+00  (FREE)  -1  CONC Species 1 Layer 2
 0.000000e+00 0.000000e+00 0.000000e+00 0.000000e+00
INTERNAL  1.000000e+00  (FREE)  -1  CONC Species 1 Layer 3
 0.000000e+00 0.000000e+00 0.000000e+00 0.000000e+00
INTERNAL  1.000000e+00  (FREE)  -1  CONC Species 1 Layer 4
 0.000000e+00 0.000000e+00 0.000000e+00 0.000000e+00
INTERNAL  1.000000e+00  (FREE)  -1  CONC Species 1 Layer 5
 0.000000e+00 0.000000e+00 0.000000e+00 0.000000e+00
INTERNAL  1.000000e+00  (FREE)  -1  CONC Species 1 Layer 6
 0.000000e+00 0.000000e+00 0.000000e+00 0.000000e+00
INTERNAL  1.000000e+00  (FREE)  -1  CONC Species 1 Layer 7
 0.000000e+00 0.000000e+00 0.000000e+00 0.000000e+00
INTERNAL  1.000000e+00  (FREE)  -1  CONC Species 1 Layer 8
 0.000000e+00 0.000000e+00 0.000000e+00 0.000000e+00
INTERNAL  1.000000e+00  (FREE)  -1  CONC Species 1 Layer 9
 0.000000e+00 0.000000e+00 0.000000e+00 0.000000e+00
INTERNAL  1.000000e+00  (FREE)  -1  CONC Species 1 Layer 10
 0.000000e+00 0.000000e+00 0.000000e+00 0.000000e+00
INTERNAL  1.000000e+00  (FREE)  -1  CONC Species 1 Layer 11
 0.000000e+00 0.000000e+00 0.000000e+00 0.000000e+00
INTERNAL  1.000000e+00  (FREE)  -1  CONC Species 1 Layer 12
 0.000000e+00 0.000000e+00 0.000000e+00 0.000000e+00
INTERNAL  1.000000e+00  (FREE)  -1  CONC Species 1 Layer 13
 0.000000e+00 0.000000e+00 0.000000e+00 0.000000e+00
INTERNAL  1.000000e+00  (FREE)  -1  CONC Species 1 Layer 14
 0.000000e+00 0.000000e+00 0.000000e+00 0.000000e+00
INTERNAL  1.000000e+00  (FREE)  -1  CONC Species 1 Layer 15
 0.000000e+00 0.000000e+00 0.000000e+00 0.000000e+00
INTERNAL  1.000000e+00  (FREE)  -1  CONC Species 1 Layer 16
 0.000000e+00 0.000000e+00 0.000000e+00 0.000000e+00
INTERNAL  1.000000e+00  (FREE)  -1  CONC Species 1 Layer 17
 0.000000e+00 0.000000e+00 0.000000e+00 0.000000e+00
INTERNAL  1.000000e+00  (FREE)  -1  CONC Species 1 Layer 18
 0.000000e+00 0.000000e+00 0.000000e+00 0.000000e+00
INTERNAL  1.000000e+00  (FREE)  -1  CONC Species 1 Layer 19
 0.000000e+00 0.000000e+00 0.000000e+00 0.000000e+00
INTERNAL  1.000000e+00  (FREE)  -1  CONC Species 1 Layer 20
 0.000000e+00 0.000000e+00 0.000000e+00 0.000000e+00
INTERNAL  1.000000e+00  (FREE)  -1  CONC Species 1 Layer 21
 0.000000e+00 0.000000e+00 0.000000e+00 0.000000e+00
INTERNAL  1.000000e+00  (FREE)  -1  CONC Species 1 Layer 22
 0.000000e+00 0.000000e+00 0.000000e+00 0.000000e+00
INTERNAL  1.000000e+00  (FREE)  -1  CONC Species 1 Layer 23
 0.000000e+00 0.000000e+00 0.000000e+00 0.000000e+00
INTERNAL  1.000000e+00  (FREE)  -1  CONC Species 1 Layer 24
 0.000000e+00 0.000000e+00 0.000000e+00 0.000000e+00
INTERNAL  1.000000e+00  (FREE)  -1  CONC Species 1 Layer 25
 0.000000e+00 0.000000e+00 0.000000e+00 0.000000e+00
INTERNAL  1.000000e+00  (FREE)  -1  CONC Species 1 Layer 26
 0.000000e+00 0.000000e+00 0.000000e+00 0.000000e+00
INTERNAL  1.000000e+00  (FREE)  -1  CONC Species 1 Layer 27
 0.000000e+00 0.000000e+00 0.000000e+00 0.000000e+00
INTERNAL  1.000000e+00  (FREE)  -1  CONC Species 1 Layer 28
 0.000000e+00 0.000000e+00 0.000000e+00 0.000000e+00
INTERNAL  1.000000e+00  (FREE)  -1  CONC Species 1 Layer 29
 0.000000e+00 0.000000e+00 0.000000e+00 0.000000e+00
INTERNAL  1.000000e+00  (FREE)  -1  CONC Species 1 Layer 30