# Name file for MODFLOW-NWT, generated by Flopy version 3.2.6.
#xul:0; yul:15; rotation:0; proj4_str:EPSG:4326; units:meters; lenuni:2; length_multiplier:1.0 ;start_datetime:1-1-1970
LIST               2  CrnkNic.list
OC                14  CrnkNic.oc
NWT               32  CrnkNic.nwt
DIS               11  CrnkNic.dis
UPW               31  CrnkNic.upw
BAS6              13  CrnkNic.bas
SFR               17  CrnkNic.sfr
LMT6              30  CrnkNic.lmt6
GAGE             120  CrnkNic.gage
DATA(BINARY)      51  CrnkNic.hds REPLACE
DATA(BINARY)      53  CrnkNic.cbc REPLACE
DATA              61  CrnkNic.gag1
DATA              62  CrnkNic.gag2
DATA              63  CrnkNic.gag3
DATA              64  CrnkNic.gag4
DATA              65  CrnkNic.gag5
DATA              66  CrnkNic.gag6
