#SFR Input file for example 1D solute transport using MT3DMS
#KRCH,IRCH,JRCH,ISEG,IREACH, RCHLEN,{STRTOP},{SLOPE},{STRTHICK},{STRHC1}
REACHINPUT                                                    #1a
  650    6  0  0  1.0  0.0001  -10  11  1                      #1c: NSTRM,NSS,NSFRPAR,NPARSEG,CONST,DLEAK,ISTCB1,ISTCB2,{ISFROPT},{NSTRAIL},{ISUZN},{NSFRSETS}  neg. NSTRM flags for simulation of unsat. flow beneath strm
    1    2   1      1    1      1.00   98.75000000  0.0001000 0.50    1.0e-10
    1    2   2      1    2      1.00   98.74990000  0.0001000 0.50    1.0e-10
    1    2   3      1    3      1.00   98.74980000  0.0001000 0.50    1.0e-10
    1    2   4      1    4      1.00   98.74970000  0.0001000 0.50    1.0e-10
    1    2   5      1    5      1.00   98.74960000  0.0001000 0.50    1.0e-10
    1    2   6      1    6      1.00   98.74950000  0.0001000 0.50    1.0e-10
    1    2   7      1    7      1.00   98.74940000  0.0001000 0.50    1.0e-10
    1    2   8      1    8      1.00   98.74930000  0.0001000 0.50    1.0e-10
    1    2   9      1    9      1.00   98.74920000  0.0001000 0.50    1.0e-10
    1    2   10     1    10     1.00   98.74910000  0.0001000 0.50    1.0e-10
    1    2   11     1    11     1.00   98.74900000  0.0001000 0.50    1.0e-10
    1    2   12     1    12     1.00   98.74890000  0.0001000 0.50    1.0e-10
    1    2   13     1    13     1.00   98.74880000  0.0001000 0.50    1.0e-10
    1    2   14     1    14     1.00   98.74870000  0.0001000 0.50    1.0e-10
    1    2   15     1    15     1.00   98.74860000  0.0001000 0.50    1.0e-10
    1    2   16     1    16     1.00   98.74850000  0.0001000 0.50    1.0e-10
    1    2   17     1    17     1.00   98.74840000  0.0001000 0.50    1.0e-10
    1    2   18     1    18     1.00   98.74830000  0.0001000 0.50    1.0e-10
    1    2   19     1    19     1.00   98.74820000  0.0001000 0.50    1.0e-10
    1    2   20     1    20     1.00   98.74810000  0.0001000 0.50    1.0e-10
    1    2   21     1    21     1.00   98.74800000  0.0001000 0.50    1.0e-10
    1    2   22     1    22     1.00   98.74790000  0.0001000 0.50    1.0e-10
    1    2   23     1    23     1.00   98.74780000  0.0001000 0.50    1.0e-10
    1    2   24     1    24     1.00   98.74770000  0.0001000 0.50    1.0e-10
    1    2   25     1    25     1.00   98.74760000  0.0001000 0.50    1.0e-10
    1    2   26     1    26     1.00   98.74750000  0.0001000 0.50    1.0e-10
    1    2   27     1    27     1.00   98.74740000  0.0001000 0.50    1.0e-10
    1    2   28     1    28     1.00   98.74730000  0.0001000 0.50    1.0e-10
    1    2   29     1    29     1.00   98.74720000  0.0001000 0.50    1.0e-10
    1    2   30     1    30     1.00   98.74710000  0.0001000 0.50    1.0e-10
    1    2   31     1    31     1.00   98.74700000  0.0001000 0.50    1.0e-10
    1    2   32     1    32     1.00   98.74690000  0.0001000 0.50    1.0e-10
    1    2   33     1    33     1.00   98.74680000  0.0001000 0.50    1.0e-10
    1    2   34     1    34     1.00   98.74670000  0.0001000 0.50    1.0e-10
    1    2   35     1    35     1.00   98.74660000  0.0001000 0.50    1.0e-10
    1    2   36     1    36     1.00   98.74650000  0.0001000 0.50    1.0e-10
    1    2   37     1    37     1.00   98.74640000  0.0001000 0.50    1.0e-10
    1    2   38     1    38     1.00   98.74630000  0.0001000 0.50    1.0e-10
    1    2   39     2    1      1.00   98.74620000  0.0001000 0.50    1.0e-10
    1    2   40     2    2      1.00   98.74610000  0.0001000 0.50    1.0e-10
    1    2   41     2    3      1.00   98.74600000  0.0001000 0.50    1.0e-10
    1    2   42     2    4      1.00   98.74590000  0.0001000 0.50    1.0e-10
    1    2   43     2    5      1.00   98.74580000  0.0001000 0.50    1.0e-10
    1    2   44     2    6      1.00   98.74570000  0.0001000 0.50    1.0e-10
    1    2   45     2    7      1.00   98.74560000  0.0001000 0.50    1.0e-10
    1    2   46     2    8      1.00   98.74550000  0.0001000 0.50    1.0e-10
    1    2   47     2    9      1.00   98.74540000  0.0001000 0.50    1.0e-10
    1    2   48     2    10     1.00   98.74530000  0.0001000 0.50    1.0e-10
    1    2   49     2    11     1.00   98.74520000  0.0001000 0.50    1.0e-10
    1    2   50     2    12     1.00   98.74510000  0.0001000 0.50    1.0e-10
    1    2   51     2    13     1.00   98.74500000  0.0001000 0.50    1.0e-10
    1    2   52     2    14     1.00   98.74490000  0.0001000 0.50    1.0e-10
    1    2   53     2    15     1.00   98.74480000  0.0001000 0.50    1.0e-10
    1    2   54     2    16     1.00   98.74470000  0.0001000 0.50    1.0e-10
    1    2   55     2    17     1.00   98.74460000  0.0001000 0.50    1.0e-10
    1    2   56     2    18     1.00   98.74450000  0.0001000 0.50    1.0e-10
    1    2   57     2    19     1.00   98.74440000  0.0001000 0.50    1.0e-10
    1    2   58     2    20     1.00   98.74430000  0.0001000 0.50    1.0e-10
    1    2   59     2    21     1.00   98.74420000  0.0001000 0.50    1.0e-10
    1    2   60     2    22     1.00   98.74410000  0.0001000 0.50    1.0e-10
    1    2   61     2    23     1.00   98.74400000  0.0001000 0.50    1.0e-10
    1    2   62     2    24     1.00   98.74390000  0.0001000 0.50    1.0e-10
    1    2   63     2    25     1.00   98.74380000  0.0001000 0.50    1.0e-10
    1    2   64     2    26     1.00   98.74370000  0.0001000 0.50    1.0e-10
    1    2   65     2    27     1.00   98.74360000  0.0001000 0.50    1.0e-10
    1    2   66     2    28     1.00   98.74350000  0.0001000 0.50    1.0e-10
    1    2   67     2    29     1.00   98.74340000  0.0001000 0.50    1.0e-10
    1    2   68     2    30     1.00   98.74330000  0.0001000 0.50    1.0e-10
    1    2   69     2    31     1.00   98.74320000  0.0001000 0.50    1.0e-10
    1    2   70     2    32     1.00   98.74310000  0.0001000 0.50    1.0e-10
    1    2   71     2    33     1.00   98.74300000  0.0001000 0.50    1.0e-10
    1    2   72     2    34     1.00   98.74290000  0.0001000 0.50    1.0e-10
    1    2   73     2    35     1.00   98.74280000  0.0001000 0.50    1.0e-10
    1    2   74     2    36     1.00   98.74270000  0.0001000 0.50    1.0e-10
    1    2   75     2    37     1.00   98.74260000  0.0001000 0.50    1.0e-10
    1    2   76     2    38     1.00   98.74250000  0.0001000 0.50    1.0e-10
    1    2   77     2    39     1.00   98.74240000  0.0001000 0.50    1.0e-10
    1    2   78     2    40     1.00   98.74230000  0.0001000 0.50    1.0e-10
    1    2   79     2    41     1.00   98.74220000  0.0001000 0.50    1.0e-10
    1    2   80     2    42     1.00   98.74210000  0.0001000 0.50    1.0e-10
    1    2   81     2    43     1.00   98.74200000  0.0001000 0.50    1.0e-10
    1    2   82     2    44     1.00   98.74190000  0.0001000 0.50    1.0e-10
    1    2   83     2    45     1.00   98.74180000  0.0001000 0.50    1.0e-10
    1    2   84     2    46     1.00   98.74170000  0.0001000 0.50    1.0e-10
    1    2   85     2    47     1.00   98.74160000  0.0001000 0.50    1.0e-10
    1    2   86     2    48     1.00   98.74150000  0.0001000 0.50    1.0e-10
    1    2   87     2    49     1.00   98.74140000  0.0001000 0.50    1.0e-10
    1    2   88     2    50     1.00   98.74130000  0.0001000 0.50    1.0e-10
    1    2   89     2    51     1.00   98.74120000  0.0001000 0.50    1.0e-10
    1    2   90     2    52     1.00   98.74110000  0.0001000 0.50    1.0e-10
    1    2   91     2    53     1.00   98.74100000  0.0001000 0.50    1.0e-10
    1    2   92     2    54     1.00   98.74090000  0.0001000 0.50    1.0e-10
    1    2   93     2    55     1.00   98.74080000  0.0001000 0.50    1.0e-10
    1    2   94     2    56     1.00   98.74070000  0.0001000 0.50    1.0e-10
    1    2   95     2    57     1.00   98.74060000  0.0001000 0.50    1.0e-10
    1    2   96     2    58     1.00   98.74050000  0.0001000 0.50    1.0e-10
    1    2   97     2    59     1.00   98.74040000  0.0001000 0.50    1.0e-10
    1    2   98     2    60     1.00   98.74030000  0.0001000 0.50    1.0e-10
    1    2   99     2    61     1.00   98.74020000  0.0001000 0.50    1.0e-10
    1    2   100    2    62     1.00   98.74010000  0.0001000 0.50    1.0e-10
    1    2   101    2    63     1.00   98.74000000  0.0001000 0.50    1.0e-10
    1    2   102    2    64     1.00   98.73990000  0.0001000 0.50    1.0e-10
    1    2   103    2    65     1.00   98.73980000  0.0001000 0.50    1.0e-10
    1    2   104    2    66     1.00   98.73970000  0.0001000 0.50    1.0e-10
    1    2   105    2    67     1.00   98.73960000  0.0001000 0.50    1.0e-10
    1    2   106    3    1      1.00   98.73950000  0.0001000 0.50    2.946219199e-6
    1    2   107    3    2      1.00   98.73940000  0.0001000 0.50    2.946219199e-6
    1    2   108    3    3      1.00   98.73930000  0.0001000 0.50    2.946219199e-6
    1    2   109    3    4      1.00   98.73920000  0.0001000 0.50    2.946219199e-6
    1    2   110    3    5      1.00   98.73910000  0.0001000 0.50    2.946219199e-6
    1    2   111    3    6      1.00   98.73900000  0.0001000 0.50    2.946219199e-6
    1    2   112    3    7      1.00   98.73890000  0.0001000 0.50    2.946219199e-6
    1    2   113    3    8      1.00   98.73880000  0.0001000 0.50    2.946219199e-6
    1    2   114    3    9      1.00   98.73870000  0.0001000 0.50    2.946219199e-6
    1    2   115    3    10     1.00   98.73860000  0.0001000 0.50    2.946219199e-6
    1    2   116    3    11     1.00   98.73850000  0.0001000 0.50    2.946219199e-6
    1    2   117    3    12     1.00   98.73840000  0.0001000 0.50    2.946219199e-6
    1    2   118    3    13     1.00   98.73830000  0.0001000 0.50    2.946219199e-6
    1    2   119    3    14     1.00   98.73820000  0.0001000 0.50    2.946219199e-6
    1    2   120    3    15     1.00   98.73810000  0.0001000 0.50    2.946219199e-6
    1    2   121    3    16     1.00   98.73800000  0.0001000 0.50    2.946219199e-6
    1    2   122    3    17     1.00   98.73790000  0.0001000 0.50    2.946219199e-6
    1    2   123    3    18     1.00   98.73780000  0.0001000 0.50    2.946219199e-6
    1    2   124    3    19     1.00   98.73770000  0.0001000 0.50    2.946219199e-6
    1    2   125    3    20     1.00   98.73760000  0.0001000 0.50    2.946219199e-6
    1    2   126    3    21     1.00   98.73750000  0.0001000 0.50    2.946219199e-6
    1    2   127    3    22     1.00   98.73740000  0.0001000 0.50    2.946219199e-6
    1    2   128    3    23     1.00   98.73730000  0.0001000 0.50    2.946219199e-6
    1    2   129    3    24     1.00   98.73720000  0.0001000 0.50    2.946219199e-6
    1    2   130    3    25     1.00   98.73710000  0.0001000 0.50    2.946219199e-6
    1    2   131    3    26     1.00   98.73700000  0.0001000 0.50    2.946219199e-6
    1    2   132    3    27     1.00   98.73690000  0.0001000 0.50    2.946219199e-6
    1    2   133    3    28     1.00   98.73680000  0.0001000 0.50    2.946219199e-6
    1    2   134    3    29     1.00   98.73670000  0.0001000 0.50    2.946219199e-6
    1    2   135    3    30     1.00   98.73660000  0.0001000 0.50    2.946219199e-6
    1    2   136    3    31     1.00   98.73650000  0.0001000 0.50    2.946219199e-6
    1    2   137    3    32     1.00   98.73640000  0.0001000 0.50    2.946219199e-6
    1    2   138    3    33     1.00   98.73630000  0.0001000 0.50    2.946219199e-6
    1    2   139    3    34     1.00   98.73620000  0.0001000 0.50    2.946219199e-6
    1    2   140    3    35     1.00   98.73610000  0.0001000 0.50    2.946219199e-6
    1    2   141    3    36     1.00   98.73600000  0.0001000 0.50    2.946219199e-6
    1    2   142    3    37     1.00   98.73590000  0.0001000 0.50    2.946219199e-6
    1    2   143    3    38     1.00   98.73580000  0.0001000 0.50    2.946219199e-6
    1    2   144    3    39     1.00   98.73570000  0.0001000 0.50    2.946219199e-6
    1    2   145    3    40     1.00   98.73560000  0.0001000 0.50    2.946219199e-6
    1    2   146    3    41     1.00   98.73550000  0.0001000 0.50    2.946219199e-6
    1    2   147    3    42     1.00   98.73540000  0.0001000 0.50    2.946219199e-6
    1    2   148    3    43     1.00   98.73530000  0.0001000 0.50    2.946219199e-6
    1    2   149    3    44     1.00   98.73520000  0.0001000 0.50    2.946219199e-6
    1    2   150    3    45     1.00   98.73510000  0.0001000 0.50    2.946219199e-6
    1    2   151    3    46     1.00   98.73500000  0.0001000 0.50    2.946219199e-6
    1    2   152    3    47     1.00   98.73490000  0.0001000 0.50    2.946219199e-6
    1    2   153    3    48     1.00   98.73480000  0.0001000 0.50    2.946219199e-6
    1    2   154    3    49     1.00   98.73470000  0.0001000 0.50    2.946219199e-6
    1    2   155    3    50     1.00   98.73460000  0.0001000 0.50    2.946219199e-6
    1    2   156    3    51     1.00   98.73450000  0.0001000 0.50    2.946219199e-6
    1    2   157    3    52     1.00   98.73440000  0.0001000 0.50    2.946219199e-6
    1    2   158    3    53     1.00   98.73430000  0.0001000 0.50    2.946219199e-6
    1    2   159    3    54     1.00   98.73420000  0.0001000 0.50    2.946219199e-6
    1    2   160    3    55     1.00   98.73410000  0.0001000 0.50    2.946219199e-6
    1    2   161    3    56     1.00   98.73400000  0.0001000 0.50    2.946219199e-6
    1    2   162    3    57     1.00   98.73390000  0.0001000 0.50    2.946219199e-6
    1    2   163    3    58     1.00   98.73380000  0.0001000 0.50    2.946219199e-6
    1    2   164    3    59     1.00   98.73370000  0.0001000 0.50    2.946219199e-6
    1    2   165    3    60     1.00   98.73360000  0.0001000 0.50    2.946219199e-6
    1    2   166    3    61     1.00   98.73350000  0.0001000 0.50    2.946219199e-6
    1    2   167    3    62     1.00   98.73340000  0.0001000 0.50    2.946219199e-6
    1    2   168    3    63     1.00   98.73330000  0.0001000 0.50    2.946219199e-6
    1    2   169    3    64     1.00   98.73320000  0.0001000 0.50    2.946219199e-6
    1    2   170    3    65     1.00   98.73310000  0.0001000 0.50    2.946219199e-6
    1    2   171    3    66     1.00   98.73300000  0.0001000 0.50    2.946219199e-6
    1    2   172    3    67     1.00   98.73290000  0.0001000 0.50    2.946219199e-6
    1    2   173    3    68     1.00   98.73280000  0.0001000 0.50    2.946219199e-6
    1    2   174    3    69     1.00   98.73270000  0.0001000 0.50    2.946219199e-6
    1    2   175    3    70     1.00   98.73260000  0.0001000 0.50    2.946219199e-6
    1    2   176    3    71     1.00   98.73250000  0.0001000 0.50    2.946219199e-6
    1    2   177    3    72     1.00   98.73240000  0.0001000 0.50    2.946219199e-6
    1    2   178    3    73     1.00   98.73230000  0.0001000 0.50    2.946219199e-6
    1    2   179    3    74     1.00   98.73220000  0.0001000 0.50    2.946219199e-6
    1    2   180    3    75     1.00   98.73210000  0.0001000 0.50    2.946219199e-6
    1    2   181    3    76     1.00   98.73200000  0.0001000 0.50    2.946219199e-6
    1    2   182    3    77     1.00   98.73190000  0.0001000 0.50    2.946219199e-6
    1    2   183    3    78     1.00   98.73180000  0.0001000 0.50    2.946219199e-6
    1    2   184    3    79     1.00   98.73170000  0.0001000 0.50    2.946219199e-6
    1    2   185    3    80     1.00   98.73160000  0.0001000 0.50    2.946219199e-6
    1    2   186    3    81     1.00   98.73150000  0.0001000 0.50    2.946219199e-6
    1    2   187    3    82     1.00   98.73140000  0.0001000 0.50    2.946219199e-6
    1    2   188    3    83     1.00   98.73130000  0.0001000 0.50    2.946219199e-6
    1    2   189    3    84     1.00   98.73120000  0.0001000 0.50    2.946219199e-6
    1    2   190    3    85     1.00   98.73110000  0.0001000 0.50    2.946219199e-6
    1    2   191    3    86     1.00   98.73100000  0.0001000 0.50    2.946219199e-6
    1    2   192    3    87     1.00   98.73090000  0.0001000 0.50    2.946219199e-6
    1    2   193    3    88     1.00   98.73080000  0.0001000 0.50    2.946219199e-6
    1    2   194    3    89     1.00   98.73070000  0.0001000 0.50    2.946219199e-6
    1    2   195    3    90     1.00   98.73060000  0.0001000 0.50    2.946219199e-6
    1    2   196    3    91     1.00   98.73050000  0.0001000 0.50    2.946219199e-6
    1    2   197    3    92     1.00   98.73040000  0.0001000 0.50    2.946219199e-6
    1    2   198    3    93     1.00   98.73030000  0.0001000 0.50    2.946219199e-6
    1    2   199    3    94     1.00   98.73020000  0.0001000 0.50    2.946219199e-6
    1    2   200    3    95     1.00   98.73010000  0.0001000 0.50    2.946219199e-6
    1    2   201    3    96     1.00   98.73000000  0.0001000 0.50    2.946219199e-6
    1    2   202    3    97     1.00   98.72990000  0.0001000 0.50    2.946219199e-6
    1    2   203    3    98     1.00   98.72980000  0.0001000 0.50    2.946219199e-6
    1    2   204    3    99     1.00   98.72970000  0.0001000 0.50    2.946219199e-6
    1    2   205    3    100    1.00   98.72960000  0.0001000 0.50    2.946219199e-6
    1    2   206    3    101    1.00   98.72950000  0.0001000 0.50    2.946219199e-6
    1    2   207    3    102    1.00   98.72940000  0.0001000 0.50    2.946219199e-6
    1    2   208    3    103    1.00   98.72930000  0.0001000 0.50    2.946219199e-6
    1    2   209    3    104    1.00   98.72920000  0.0001000 0.50    2.946219199e-6
    1    2   210    3    105    1.00   98.72910000  0.0001000 0.50    2.946219199e-6
    1    2   211    3    106    1.00   98.72900000  0.0001000 0.50    2.946219199e-6
    1    2   212    3    107    1.00   98.72890000  0.0001000 0.50    2.946219199e-6
    1    2   213    3    108    1.00   98.72880000  0.0001000 0.50    2.946219199e-6
    1    2   214    3    109    1.00   98.72870000  0.0001000 0.50    2.946219199e-6
    1    2   215    3    110    1.00   98.72860000  0.0001000 0.50    2.946219199e-6
    1    2   216    3    111    1.00   98.72850000  0.0001000 0.50    2.946219199e-6
    1    2   217    3    112    1.00   98.72840000  0.0001000 0.50    2.946219199e-6
    1    2   218    3    113    1.00   98.72830000  0.0001000 0.50    2.946219199e-6
    1    2   219    3    114    1.00   98.72820000  0.0001000 0.50    2.946219199e-6
    1    2   220    3    115    1.00   98.72810000  0.0001000 0.50    2.946219199e-6
    1    2   221    3    116    1.00   98.72800000  0.0001000 0.50    2.946219199e-6
    1    2   222    3    117    1.00   98.72790000  0.0001000 0.50    2.946219199e-6
    1    2   223    3    118    1.00   98.72780000  0.0001000 0.50    2.946219199e-6
    1    2   224    3    119    1.00   98.72770000  0.0001000 0.50    2.946219199e-6
    1    2   225    3    120    1.00   98.72760000  0.0001000 0.50    2.946219199e-6
    1    2   226    3    121    1.00   98.72750000  0.0001000 0.50    2.946219199e-6
    1    2   227    3    122    1.00   98.72740000  0.0001000 0.50    2.946219199e-6
    1    2   228    3    123    1.00   98.72730000  0.0001000 0.50    2.946219199e-6
    1    2   229    3    124    1.00   98.72720000  0.0001000 0.50    2.946219199e-6
    1    2   230    3    125    1.00   98.72710000  0.0001000 0.50    2.946219199e-6
    1    2   231    3    126    1.00   98.72700000  0.0001000 0.50    2.946219199e-6
    1    2   232    3    127    1.00   98.72690000  0.0001000 0.50    2.946219199e-6
    1    2   233    3    128    1.00   98.72680000  0.0001000 0.50    2.946219199e-6
    1    2   234    3    129    1.00   98.72670000  0.0001000 0.50    2.946219199e-6
    1    2   235    3    130    1.00   98.72660000  0.0001000 0.50    2.946219199e-6
    1    2   236    3    131    1.00   98.72650000  0.0001000 0.50    2.946219199e-6
    1    2   237    3    132    1.00   98.72640000  0.0001000 0.50    2.946219199e-6
    1    2   238    3    133    1.00   98.72630000  0.0001000 0.50    2.946219199e-6
    1    2   239    3    134    1.00   98.72620000  0.0001000 0.50    2.946219199e-6
    1    2   240    3    135    1.00   98.72610000  0.0001000 0.50    2.946219199e-6
    1    2   241    3    136    1.00   98.72600000  0.0001000 0.50    2.946219199e-6
    1    2   242    3    137    1.00   98.72590000  0.0001000 0.50    2.946219199e-6
    1    2   243    3    138    1.00   98.72580000  0.0001000 0.50    2.946219199e-6
    1    2   244    3    139    1.00   98.72570000  0.0001000 0.50    2.946219199e-6
    1    2   245    3    140    1.00   98.72560000  0.0001000 0.50    2.946219199e-6
    1    2   246    3    141    1.00   98.72550000  0.0001000 0.50    2.946219199e-6
    1    2   247    3    142    1.00   98.72540000  0.0001000 0.50    2.946219199e-6
    1    2   248    3    143    1.00   98.72530000  0.0001000 0.50    2.946219199e-6
    1    2   249    3    144    1.00   98.72520000  0.0001000 0.50    2.946219199e-6
    1    2   250    3    145    1.00   98.72510000  0.0001000 0.50    2.946219199e-6
    1    2   251    3    146    1.00   98.72500000  0.0001000 0.50    2.946219199e-6
    1    2   252    3    147    1.00   98.72490000  0.0001000 0.50    2.946219199e-6
    1    2   253    3    148    1.00   98.72480000  0.0001000 0.50    2.946219199e-6
    1    2   254    3    149    1.00   98.72470000  0.0001000 0.50    2.946219199e-6
    1    2   255    3    150    1.00   98.72460000  0.0001000 0.50    2.946219199e-6
    1    2   256    3    151    1.00   98.72450000  0.0001000 0.50    2.946219199e-6
    1    2   257    3    152    1.00   98.72440000  0.0001000 0.50    2.946219199e-6
    1    2   258    3    153    1.00   98.72430000  0.0001000 0.50    2.946219199e-6
    1    2   259    3    154    1.00   98.72420000  0.0001000 0.50    2.946219199e-6
    1    2   260    3    155    1.00   98.72410000  0.0001000 0.50    2.946219199e-6
    1    2   261    3    156    1.00   98.72400000  0.0001000 0.50    2.946219199e-6
    1    2   262    3    157    1.00   98.72390000  0.0001000 0.50    2.946219199e-6
    1    2   263    3    158    1.00   98.72380000  0.0001000 0.50    2.946219199e-6
    1    2   264    3    159    1.00   98.72370000  0.0001000 0.50    2.946219199e-6
    1    2   265    3    160    1.00   98.72360000  0.0001000 0.50    2.946219199e-6
    1    2   266    3    161    1.00   98.72350000  0.0001000 0.50    2.946219199e-6
    1    2   267    3    162    1.00   98.72340000  0.0001000 0.50    2.946219199e-6
    1    2   268    3    163    1.00   98.72330000  0.0001000 0.50    2.946219199e-6
    1    2   269    3    164    1.00   98.72320000  0.0001000 0.50    2.946219199e-6
    1    2   270    3    165    1.00   98.72310000  0.0001000 0.50    2.946219199e-6
    1    2   271    3    166    1.00   98.72300000  0.0001000 0.50    2.946219199e-6
    1    2   272    3    167    1.00   98.72290000  0.0001000 0.50    2.946219199e-6
    1    2   273    3    168    1.00   98.72280000  0.0001000 0.50    2.946219199e-6
    1    2   274    3    169    1.00   98.72270000  0.0001000 0.50    2.946219199e-6
    1    2   275    3    170    1.00   98.72260000  0.0001000 0.50    2.946219199e-6
    1    2   276    3    171    1.00   98.72250000  0.0001000 0.50    2.946219199e-6
    1    2   277    3    172    1.00   98.72240000  0.0001000 0.50    2.946219199e-6
    1    2   278    3    173    1.00   98.72230000  0.0001000 0.50    2.946219199e-6
    1    2   279    3    174    1.00   98.72220000  0.0001000 0.50    2.946219199e-6
    1    2   280    3    175    1.00   98.72210000  0.0001000 0.50    2.946219199e-6
    1    2   281    3    176    1.00   98.72200000  0.0001000 0.50    2.946219199e-6
    1    2   282    4    1      1.00   98.72190000  0.0001000 0.50    1.375079882e-6
    1    2   283    4    2      1.00   98.72180000  0.0001000 0.50    1.375079882e-6
    1    2   284    4    3      1.00   98.72170000  0.0001000 0.50    1.375079882e-6
    1    2   285    4    4      1.00   98.72160000  0.0001000 0.50    1.375079882e-6
    1    2   286    4    5      1.00   98.72150000  0.0001000 0.50    1.375079882e-6
    1    2   287    4    6      1.00   98.72140000  0.0001000 0.50    1.375079882e-6
    1    2   288    4    7      1.00   98.72130000  0.0001000 0.50    1.375079882e-6
    1    2   289    4    8      1.00   98.72120000  0.0001000 0.50    1.375079882e-6
    1    2   290    4    9      1.00   98.72110000  0.0001000 0.50    1.375079882e-6
    1    2   291    4    10     1.00   98.72100000  0.0001000 0.50    1.375079882e-6
    1    2   292    4    11     1.00   98.72090000  0.0001000 0.50    1.375079882e-6
    1    2   293    4    12     1.00   98.72080000  0.0001000 0.50    1.375079882e-6
    1    2   294    4    13     1.00   98.72070000  0.0001000 0.50    1.375079882e-6
    1    2   295    4    14     1.00   98.72060000  0.0001000 0.50    1.375079882e-6
    1    2   296    4    15     1.00   98.72050000  0.0001000 0.50    1.375079882e-6
    1    2   297    4    16     1.00   98.72040000  0.0001000 0.50    1.375079882e-6
    1    2   298    4    17     1.00   98.72030000  0.0001000 0.50    1.375079882e-6
    1    2   299    4    18     1.00   98.72020000  0.0001000 0.50    1.375079882e-6
    1    2   300    4    19     1.00   98.72010000  0.0001000 0.50    1.375079882e-6
    1    2   301    4    20     1.00   98.72000000  0.0001000 0.50    1.375079882e-6
    1    2   302    4    21     1.00   98.71990000  0.0001000 0.50    1.375079882e-6
    1    2   303    4    22     1.00   98.71980000  0.0001000 0.50    1.375079882e-6
    1    2   304    4    23     1.00   98.71970000  0.0001000 0.50    1.375079882e-6
    1    2   305    4    24     1.00   98.71960000  0.0001000 0.50    1.375079882e-6
    1    2   306    4    25     1.00   98.71950000  0.0001000 0.50    1.375079882e-6
    1    2   307    4    26     1.00   98.71940000  0.0001000 0.50    1.375079882e-6
    1    2   308    4    27     1.00   98.71930000  0.0001000 0.50    1.375079882e-6
    1    2   309    4    28     1.00   98.71920000  0.0001000 0.50    1.375079882e-6
    1    2   310    4    29     1.00   98.71910000  0.0001000 0.50    1.375079882e-6
    1    2   311    4    30     1.00   98.71900000  0.0001000 0.50    1.375079882e-6
    1    2   312    4    31     1.00   98.71890000  0.0001000 0.50    1.375079882e-6
    1    2   313    4    32     1.00   98.71880000  0.0001000 0.50    1.375079882e-6
    1    2   314    4    33     1.00   98.71870000  0.0001000 0.50    1.375079882e-6
    1    2   315    4    34     1.00   98.71860000  0.0001000 0.50    1.375079882e-6
    1    2   316    4    35     1.00   98.71850000  0.0001000 0.50    1.375079882e-6
    1    2   317    4    36     1.00   98.71840000  0.0001000 0.50    1.375079882e-6
    1    2   318    4    37     1.00   98.71830000  0.0001000 0.50    1.375079882e-6
    1    2   319    4    38     1.00   98.71820000  0.0001000 0.50    1.375079882e-6
    1    2   320    4    39     1.00   98.71810000  0.0001000 0.50    1.375079882e-6
    1    2   321    4    40     1.00   98.71800000  0.0001000 0.50    1.375079882e-6
    1    2   322    4    41     1.00   98.71790000  0.0001000 0.50    1.375079882e-6
    1    2   323    4    42     1.00   98.71780000  0.0001000 0.50    1.375079882e-6
    1    2   324    4    43     1.00   98.71770000  0.0001000 0.50    1.375079882e-6
    1    2   325    4    44     1.00   98.71760000  0.0001000 0.50    1.375079882e-6
    1    2   326    4    45     1.00   98.71750000  0.0001000 0.50    1.375079882e-6
    1    2   327    4    46     1.00   98.71740000  0.0001000 0.50    1.375079882e-6
    1    2   328    4    47     1.00   98.71730000  0.0001000 0.50    1.375079882e-6
    1    2   329    4    48     1.00   98.71720000  0.0001000 0.50    1.375079882e-6
    1    2   330    4    49     1.00   98.71710000  0.0001000 0.50    1.375079882e-6
    1    2   331    4    50     1.00   98.71700000  0.0001000 0.50    1.375079882e-6
    1    2   332    4    51     1.00   98.71690000  0.0001000 0.50    1.375079882e-6
    1    2   333    4    52     1.00   98.71680000  0.0001000 0.50    1.375079882e-6
    1    2   334    4    53     1.00   98.71670000  0.0001000 0.50    1.375079882e-6
    1    2   335    4    54     1.00   98.71660000  0.0001000 0.50    1.375079882e-6
    1    2   336    4    55     1.00   98.71650000  0.0001000 0.50    1.375079882e-6
    1    2   337    4    56     1.00   98.71640000  0.0001000 0.50    1.375079882e-6
    1    2   338    4    57     1.00   98.71630000  0.0001000 0.50    1.375079882e-6
    1    2   339    4    58     1.00   98.71620000  0.0001000 0.50    1.375079882e-6
    1    2   340    4    59     1.00   98.71610000  0.0001000 0.50    1.375079882e-6
    1    2   341    4    60     1.00   98.71600000  0.0001000 0.50    1.375079882e-6
    1    2   342    4    61     1.00   98.71590000  0.0001000 0.50    1.375079882e-6
    1    2   343    4    62     1.00   98.71580000  0.0001000 0.50    1.375079882e-6
    1    2   344    4    63     1.00   98.71570000  0.0001000 0.50    1.375079882e-6
    1    2   345    4    64     1.00   98.71560000  0.0001000 0.50    1.375079882e-6
    1    2   346    4    65     1.00   98.71550000  0.0001000 0.50    1.375079882e-6
    1    2   347    4    66     1.00   98.71540000  0.0001000 0.50    1.375079882e-6
    1    2   348    4    67     1.00   98.71530000  0.0001000 0.50    1.375079882e-6
    1    2   349    4    68     1.00   98.71520000  0.0001000 0.50    1.375079882e-6
    1    2   350    4    69     1.00   98.71510000  0.0001000 0.50    1.375079882e-6
    1    2   351    4    70     1.00   98.71500000  0.0001000 0.50    1.375079882e-6
    1    2   352    4    71     1.00   98.71490000  0.0001000 0.50    1.375079882e-6
    1    2   353    4    72     1.00   98.71480000  0.0001000 0.50    1.375079882e-6
    1    2   354    4    73     1.00   98.71470000  0.0001000 0.50    1.375079882e-6
    1    2   355    4    74     1.00   98.71460000  0.0001000 0.50    1.375079882e-6
    1    2   356    4    75     1.00   98.71450000  0.0001000 0.50    1.375079882e-6