# SFR package for  MODFLOW-NWT, generated by Flopy.
reachinput 
650 6 0 0 1.00000000 0.00010000 0 0 1 
1 2 1 1 1 1.0 98.75 9.99999974738e-05 0.5 1.00000001335e-10
1 2 2 1 2 1.0 98.7499008179 9.99999974738e-05 0.5 1.00000001335e-10
1 2 3 1 3 1.0 98.7498016357 9.99999974738e-05 0.5 1.00000001335e-10
1 2 4 1 4 1.0 98.7497024536 9.99999974738e-05 0.5 1.00000001335e-10
1 2 5 1 5 1.0 98.7496032715 9.99999974738e-05 0.5 1.00000001335e-10
1 2 6 1 6 1.0 98.74949646 9.99999974738e-05 0.5 1.00000001335e-10
1 2 7 1 7 1.0 98.7493972778 9.99999974738e-05 0.5 1.00000001335e-10
1 2 8 1 8 1.0 98.7492980957 9.99999974738e-05 0.5 1.00000001335e-10
1 2 9 1 9 1.0 98.7491989136 9.99999974738e-05 0.5 1.00000001335e-10
1 2 10 1 10 1.0 98.7490997314 9.99999974738e-05 0.5 1.00000001335e-10
1 2 11 1 11 1.0 98.7490005493 9.99999974738e-05 0.5 1.00000001335e-10
1 2 12 1 12 1.0 98.7489013672 9.99999974738e-05 0.5 1.00000001335e-10
1 2 13 1 13 1.0 98.7488021851 9.99999974738e-05 0.5 1.00000001335e-10
1 2 14 1 14 1.0 98.7487030029 9.99999974738e-05 0.5 1.00000001335e-10
1 2 15 1 15 1.0 98.7485961914 9.99999974738e-05 0.5 1.00000001335e-10
1 2 16 1 16 1.0 98.7484970093 9.99999974738e-05 0.5 1.00000001335e-10
1 2 17 1 17 1.0 98.7483978271 9.99999974738e-05 0.5 1.00000001335e-10
1 2 18 1 18 1.0 98.748298645 9.99999974738e-05 0.5 1.00000001335e-10
1 2 19 1 19 1.0 98.7481994629 9.99999974738e-05 0.5 1.00000001335e-10
1 2 20 1 20 1.0 98.7481002808 9.99999974738e-05 0.5 1.00000001335e-10
1 2 21 1 21 1.0 98.7480010986 9.99999974738e-05 0.5 1.00000001335e-10
1 2 22 1 22 1.0 98.7479019165 9.99999974738e-05 0.5 1.00000001335e-10
1 2 23 1 23 1.0 98.7478027344 9.99999974738e-05 0.5 1.00000001335e-10
1 2 24 1 24 1.0 98.7477035522 9.99999974738e-05 0.5 1.00000001335e-10
1 2 25 1 25 1.0 98.7475967407 9.99999974738e-05 0.5 1.00000001335e-10
1 2 26 1 26 1.0 98.7474975586 9.99999974738e-05 0.5 1.00000001335e-10
1 2 27 1 27 1.0 98.7473983765 9.99999974738e-05 0.5 1.00000001335e-10
1 2 28 1 28 1.0 98.7472991943 9.99999974738e-05 0.5 1.00000001335e-10
1 2 29 1 29 1.0 98.7472000122 9.99999974738e-05 0.5 1.00000001335e-10
1 2 30 1 30 1.0 98.7471008301 9.99999974738e-05 0.5 1.00000001335e-10
1 2 31 1 31 1.0 98.7470016479 9.99999974738e-05 0.5 1.00000001335e-10
1 2 32 1 32 1.0 98.7469024658 9.99999974738e-05 0.5 1.00000001335e-10
1 2 33 1 33 1.0 98.7468032837 9.99999974738e-05 0.5 1.00000001335e-10
1 2 34 1 34 1.0 98.7466964722 9.99999974738e-05 0.5 1.00000001335e-10
1 2 35 1 35 1.0 98.74659729 9.99999974738e-05 0.5 1.00000001335e-10
1 2 36 1 36 1.0 98.7464981079 9.99999974738e-05 0.5 1.00000001335e-10
1 2 37 1 37 1.0 98.7463989258 9.99999974738e-05 0.5 1.00000001335e-10
1 2 38 1 38 1.0 98.7462997437 9.99999974738e-05 0.5 1.00000001335e-10
1 2 39 2 1 1.0 98.7462005615 9.99999974738e-05 0.5 1.00000001335e-10
1 2 40 2 2 1.0 98.7461013794 9.99999974738e-05 0.5 1.00000001335e-10
1 2 41 2 3 1.0 98.7460021973 9.99999974738e-05 0.5 1.00000001335e-10
1 2 42 2 4 1.0 98.7459030151 9.99999974738e-05 0.5 1.00000001335e-10
1 2 43 2 5 1.0 98.7457962036 9.99999974738e-05 0.5 1.00000001335e-10
1 2 44 2 6 1.0 98.7456970215 9.99999974738e-05 0.5 1.00000001335e-10
1 2 45 2 7 1.0 98.7455978394 9.99999974738e-05 0.5 1.00000001335e-10
1 2 46 2 8 1.0 98.7454986572 9.99999974738e-05 0.5 1.00000001335e-10
1 2 47 2 9 1.0 98.7453994751 9.99999974738e-05 0.5 1.00000001335e-10
1 2 48 2 10 1.0 98.745300293 9.99999974738e-05 0.5 1.00000001335e-10
1 2 49 2 11 1.0 98.7452011108 9.99999974738e-05 0.5 1.00000001335e-10
1 2 50 2 12 1.0 98.7451019287 9.99999974738e-05 0.5 1.00000001335e-10
1 2 51 2 13 1.0 98.7450027466 9.99999974738e-05 0.5 1.00000001335e-10
1 2 52 2 14 1.0 98.7449035645 9.99999974738e-05 0.5 1.00000001335e-10
1 2 53 2 15 1.0 98.7447967529 9.99999974738e-05 0.5 1.00000001335e-10
1 2 54 2 16 1.0 98.7446975708 9.99999974738e-05 0.5 1.00000001335e-10
1 2 55 2 17 1.0 98.7445983887 9.99999974738e-05 0.5 1.00000001335e-10
1 2 56 2 18 1.0 98.7444992065 9.99999974738e-05 0.5 1.00000001335e-10
1 2 57 2 19 1.0 98.7444000244 9.99999974738e-05 0.5 1.00000001335e-10
1 2 58 2 20 1.0 98.7443008423 9.99999974738e-05 0.5 1.00000001335e-10
1 2 59 2 21 1.0 98.7442016602 9.99999974738e-05 0.5 1.00000001335e-10
1 2 60 2 22 1.0 98.744102478 9.99999974738e-05 0.5 1.00000001335e-10
1 2 61 2 23 1.0 98.7440032959 9.99999974738e-05 0.5 1.00000001335e-10
1 2 62 2 24 1.0 98.7438964844 9.99999974738e-05 0.5 1.00000001335e-10
1 2 63 2 25 1.0 98.7437973022 9.99999974738e-05 0.5 1.00000001335e-10
1 2 64 2 26 1.0 98.7436981201 9.99999974738e-05 0.5 1.00000001335e-10
1 2 65 2 27 1.0 98.743598938 9.99999974738e-05 0.5 1.00000001335e-10
1 2 66 2 28 1.0 98.7434997559 9.99999974738e-05 0.5 1.00000001335e-10
1 2 67 2 29 1.0 98.7434005737 9.99999974738e-05 0.5 1.00000001335e-10
1 2 68 2 30 1.0 98.7433013916 9.99999974738e-05 0.5 1.00000001335e-10
1 2 69 2 31 1.0 98.7432022095 9.99999974738e-05 0.5 1.00000001335e-10
1 2 70 2 32 1.0 98.7431030273 9.99999974738e-05 0.5 1.00000001335e-10
1 2 71 2 33 1.0 98.7429962158 9.99999974738e-05 0.5 1.00000001335e-10
1 2 72 2 34 1.0 98.7428970337 9.99999974738e-05 0.5 1.00000001335e-10
1 2 73 2 35 1.0 98.7427978516 9.99999974738e-05 0.5 1.00000001335e-10
1 2 74 2 36 1.0 98.7426986694 9.99999974738e-05 0.5 1.00000001335e-10
1 2 75 2 37 1.0 98.7425994873 9.99999974738e-05 0.5 1.00000001335e-10
1 2 76 2 38 1.0 98.7425003052 9.99999974738e-05 0.5 1.00000001335e-10
1 2 77 2 39 1.0 98.742401123 9.99999974738e-05 0.5 1.00000001335e-10
1 2 78 2 40 1.0 98.7423019409 9.99999974738e-05 0.5 1.00000001335e-10
1 2 79 2 41 1.0 98.7422027588 9.99999974738e-05 0.5 1.00000001335e-10
1 2 80 2 42 1.0 98.7421035767 9.99999974738e-05 0.5 1.00000001335e-10
1 2 81 2 43 1.0 98.7419967651 9.99999974738e-05 0.5 1.00000001335e-10
1 2 82 2 44 1.0 98.741897583 9.99999974738e-05 0.5 1.00000001335e-10
1 2 83 2 45 1.0 98.7417984009 9.99999974738e-05 0.5 1.00000001335e-10
1 2 84 2 46 1.0 98.7416992188 9.99999974738e-05 0.5 1.00000001335e-10
1 2 85 2 47 1.0 98.7416000366 9.99999974738e-05 0.5 1.00000001335e-10
1 2 86 2 48 1.0 98.7415008545 9.99999974738e-05 0.5 1.00000001335e-10
1 2 87 2 49 1.0 98.7414016724 9.99999974738e-05 0.5 1.00000001335e-10
1 2 88 2 50 1.0 98.7413024902 9.99999974738e-05 0.5 1.00000001335e-10
1 2 89 2 51 1.0 98.7412033081 9.99999974738e-05 0.5 1.00000001335e-10
1 2 90 2 52 1.0 98.7410964966 9.99999974738e-05 0.5 1.00000001335e-10
1 2 91 2 53 1.0 98.7409973145 9.99999974738e-05 0.5 1.00000001335e-10
1 2 92 2 54 1.0 98.7408981323 9.99999974738e-05 0.5 1.00000001335e-10
1 2 93 2 55 1.0 98.7407989502 9.99999974738e-05 0.5 1.00000001335e-10
1 2 94 2 56 1.0 98.7406997681 9.99999974738e-05 0.5 1.00000001335e-10
1 2 95 2 57 1.0 98.7406005859 9.99999974738e-05 0.5 1.00000001335e-10
1 2 96 2 58 1.0 98.7405014038 9.99999974738e-05 0.5 1.00000001335e-10
1 2 97 2 59 1.0 98.7404022217 9.99999974738e-05 0.5 1.00000001335e-10
1 2 98 2 60 1.0 98.7403030396 9.99999974738e-05 0.5 1.00000001335e-10
1 2 99 2 61 1.0 98.740196228 9.99999974738e-05 0.5 1.00000001335e-10
1 2 100 2 62 1.0 98.7400970459 9.99999974738e-05 0.5 1.00000001335e-10
1 2 101 2 63 1.0 98.7399978638 9.99999974738e-05 0.5 1.00000001335e-10
1 2 102 2 64 1.0 98.7398986816 9.99999974738e-05 0.5 1.00000001335e-10
1 2 103 2 65 1.0 98.7397994995 9.99999974738e-05 0.5 1.00000001335e-10
1 2 104 2 66 1.0 98.7397003174 9.99999974738e-05 0.5 1.00000001335e-10
1 2 105 2 67 1.0 98.7396011353 9.99999974738e-05 0.5 1.00000001335e-10
1 2 106 3 1 1.0 98.7395019531 9.99999974738e-05 0.5 2.94621918329e-06
1 2 107 3 2 1.0 98.739402771 9.99999974738e-05 0.5 2.94621918329e-06
1 2 108 3 3 1.0 98.7393035889 9.99999974738e-05 0.5 2.94621918329e-06
1 2 109 3 4 1.0 98.7391967773 9.99999974738e-05 0.5 2.94621918329e-06
1 2 110 3 5 1.0 98.7390975952 9.99999974738e-05 0.5 2.94621918329e-06
1 2 111 3 6 1.0 98.7389984131 9.99999974738e-05 0.5 2.94621918329e-06
1 2 112 3 7 1.0 98.738899231 9.99999974738e-05 0.5 2.94621918329e-06
1 2 113 3 8 1.0 98.7388000488 9.99999974738e-05 0.5 2.94621918329e-06
1 2 114 3 9 1.0 98.7387008667 9.99999974738e-05 0.5 2.94621918329e-06
1 2 115 3 10 1.0 98.7386016846 9.99999974738e-05 0.5 2.94621918329e-06
1 2 116 3 11 1.0 98.7385025024 9.99999974738e-05 0.5 2.94621918329e-06
1 2 117 3 12 1.0 98.7384033203 9.99999974738e-05 0.5 2.94621918329e-06
1 2 118 3 13 1.0 98.7382965088 9.99999974738e-05 0.5 2.94621918329e-06
1 2 119 3 14 1.0 98.7381973267 9.99999974738e-05 0.5 2.94621918329e-06
1 2 120 3 15 1.0 98.7380981445 9.99999974738e-05 0.5 2.94621918329e-06
1 2 121 3 16 1.0 98.7379989624 9.99999974738e-05 0.5 2.94621918329e-06
1 2 122 3 17 1.0 98.7378997803 9.99999974738e-05 0.5 2.94621918329e-06
1 2 123 3 18 1.0 98.7378005981 9.99999974738e-05 0.5 2.94621918329e-06
1 2 124 3 19 1.0 98.737701416 9.99999974738e-05 0.5 2.94621918329e-06
1 2 125 3 20 1.0 98.7376022339 9.99999974738e-05 0.5 2.94621918329e-06
1 2 126 3 21 1.0 98.7375030518 9.99999974738e-05 0.5 2.94621918329e-06
1 2 127 3 22 1.0 98.7373962402 9.99999974738e-05 0.5 2.94621918329e-06
1 2 128 3 23 1.0 98.7372970581 9.99999974738e-05 0.5 2.94621918329e-06
1 2 129 3 24 1.0 98.737197876 9.99999974738e-05 0.5 2.94621918329e-06
1 2 130 3 25 1.0 98.7370986938 9.99999974738e-05 0.5 2.94621918329e-06
1 2 131 3 26 1.0 98.7369995117 9.99999974738e-05 0.5 2.94621918329e-06
1 2 132 3 27 1.0 98.7369003296 9.99999974738e-05 0.5 2.94621918329e-06
1 2 133 3 28 1.0 98.7368011475 9.99999974738e-05 0.5 2.94621918329e-06
1 2 134 3 29 1.0 98.7367019653 9.99999974738e-05 0.5 2.94621918329e-06
1 2 135 3 30 1.0 98.7366027832 9.99999974738e-05 0.5 2.94621918329e-06
1 2 136 3 31 1.0 98.7365036011 9.99999974738e-05 0.5 2.94621918329e-06
1 2 137 3 32 1.0 98.7363967896 9.99999974738e-05 0.5 2.94621918329e-06
1 2 138 3 33 1.0 98.7362976074 9.99999974738e-05 0.5 2.94621918329e-06
1 2 139 3 34 1.0 98.7361984253 9.99999974738e-05 0.5 2.94621918329e-06
1 2 140 3 35 1.0 98.7360992432 9.99999974738e-05 0.5 2.94621918329e-06
1 2 141 3 36 1.0 98.736000061 9.99999974738e-05 0.5 2.94621918329e-06
1 2 142 3 37 1.0 98.7359008789 9.99999974738e-05 0.5 2.94621918329e-06
1 2 143 3 38 1.0 98.7358016968 9.99999974738e-05 0.5 2.94621918329e-06
1 2 144 3 39 1.0 98.7357025146 9.99999974738e-05 0.5 2.94621918329e-06
1 2 145 3 40 1.0 98.7356033325 9.99999974738e-05 0.5 2.94621918329e-06
1 2 146 3 41 1.0 98.735496521 9.99999974738e-05 0.5 2.94621918329e-06
1 2 147 3 42 1.0 98.7353973389 9.99999974738e-05 0.5 2.94621918329e-06
1 2 148 3 43 1.0 98.7352981567 9.99999974738e-05 0.5 2.94621918329e-06
1 2 149 3 44 1.0 98.7351989746 9.99999974738e-05 0.5 2.94621918329e-06
1 2 150 3 45 1.0 98.7350997925 9.99999974738e-05 0.5 2.94621918329e-06
1 2 151 3 46 1.0 98.7350006104 9.99999974738e-05 0.5 2.94621918329e-06
1 2 152 3 47 1.0 98.7349014282 9.99999974738e-05 0.5 2.94621918329e-06
1 2 153 3 48 1.0 98.7348022461 9.99999974738e-05 0.5 2.94621918329e-06
1 2 154 3 49 1.0 98.734703064 9.99999974738e-05 0.5 2.94621918329e-06
1 2 155 3 50 1.0 98.7345962524 9.99999974738e-05 0.5 2.94621918329e-06
1 2 156 3 51 1.0 98.7344970703 9.99999974738e-05 0.5 2.94621918329e-06
1 2 157 3 52 1.0 98.7343978882 9.99999974738e-05 0.5 2.94621918329e-06
1 2 158 3 53 1.0 98.7342987061 9.99999974738e-05 0.5 2.94621918329e-06
1 2 159 3 54 1.0 98.7341995239 9.99999974738e-05 0.5 2.94621918329e-06
1 2 160 3 55 1.0 98.7341003418 9.99999974738e-05 0.5 2.94621918329e-06
1 2 161 3 56 1.0 98.7340011597 9.99999974738e-05 0.5 2.94621918329e-06
1 2 162 3 57 1.0 98.7339019775 9.99999974738e-05 0.5 2.94621918329e-06
1 2 163 3 58 1.0 98.7338027954 9.99999974738e-05 0.5 2.94621918329e-06
1 2 164 3 59 1.0 98.7337036133 9.99999974738e-05 0.5 2.94621918329e-06
1 2 165 3 60 1.0 98.7335968018 9.99999974738e-05 0.5 2.94621918329e-06
1 2 166 3 61 1.0 98.7334976196 9.99999974738e-05 0.5 2.94621918329e-06
1 2 167 3 62 1.0 98.7333984375 9.99999974738e-05 0.5 2.94621918329e-06
1 2 168 3 63 1.0 98.7332992554 9.99999974738e-05 0.5 2.94621918329e-06
1 2 169 3 64 1.0 98.7332000732 9.99999974738e-05 0.5 2.94621918329e-06
1 2 170 3 65 1.0 98.7331008911 9.99999974738e-05 0.5 2.94621918329e-06
1 2 171 3 66 1.0 98.733001709 9.99999974738e-05 0.5 2.94621918329e-06
1 2 172 3 67 1.0 98.7329025269 9.99999974738e-05 0.5 2.94621918329e-06
1 2 173 3 68 1.0 98.7328033447 9.99999974738e-05 0.5 2.94621918329e-06
1 2 174 3 69 1.0 98.7326965332 9.99999974738e-05 0.5 2.94621918329e-06
1 2 175 3 70 1.0 98.7325973511 9.99999974738e-05 0.5 2.94621918329e-06
1 2 176 3 71 1.0 98.7324981689 9.99999974738e-05 0.5 2.94621918329e-06
1 2 177 3 72 1.0 98.7323989868 9.99999974738e-05 0.5 2.94621918329e-06
1 2 178 3 73 1.0 98.7322998047 9.99999974738e-05 0.5 2.94621918329e-06
1 2 179 3 74 1.0 98.7322006226 9.99999974738e-05 0.5 2.94621918329e-06
1 2 180 3 75 1.0 98.7321014404 9.99999974738e-05 0.5 2.94621918329e-06
1 2 181 3 76 1.0 98.7320022583 9.99999974738e-05 0.5 2.94621918329e-06
1 2 182 3 77 1.0 98.7319030762 9.99999974738e-05 0.5 2.94621918329e-06
1 2 183 3 78 1.0 98.7317962646 9.99999974738e-05 0.5 2.94621918329e-06
1 2 184 3 79 1.0 98.7316970825 9.99999974738e-05 0.5 2.94621918329e-06
1 2 185 3 80 1.0 98.7315979004 9.99999974738e-05 0.5 2.94621918329e-06
1 2 186 3 81 1.0 98.7314987183 9.99999974738e-05 0.5 2.94621918329e-06
1 2 187 3 82 1.0 98.7313995361 9.99999974738e-05 0.5 2.94621918329e-06
1 2 188 3 83 1.0 98.731300354 9.99999974738e-05 0.5 2.94621918329e-06
1 2 189 3 84 1.0 98.7312011719 9.99999974738e-05 0.5 2.94621918329e-06
1 2 190 3 85 1.0 98.7311019897 9.99999974738e-05 0.5 2.94621918329e-06
1 2 191 3 86 1.0 98.7310028076 9.99999974738e-05 0.5 2.94621918329e-06
1 2 192 3 87 1.0 98.7309036255 9.99999974738e-05 0.5 2.94621918329e-06
1 2 193 3 88 1.0 98.730796814 9.99999974738e-05 0.5 2.94621918329e-06
1 2 194 3 89 1.0 98.7306976318 9.99999974738e-05 0.5 2.94621918329e-06
1 2 195 3 90 1.0 98.7305984497 9.99999974738e-05 0.5 2.94621918329e-06
1 2 196 3 91 1.0 98.7304992676 9.99999974738e-05 0.5 2.94621918329e-06
1 2 197 3 92 1.0 98.7304000854 9.99999974738e-05 0.5 2.94621918329e-06
1 2 198 3 93 1.0 98.7303009033 9.99999974738e-05 0.5 2.94621918329e-06
1 2 199 3 94 1.0 98.7302017212 9.99999974738e-05 0.5 2.94621918329e-06
1 2 200 3 95 1.0 98.7301025391 9.99999974738e-05 0.5 2.94621918329e-06
1 2 201 3 96 1.0 98.7300033569 9.99999974738e-05 0.5 2.94621918329e-06
1 2 202 3 97 1.0 98.7298965454 9.99999974738e-05 0.5 2.94621918329e-06
1 2 203 3 98 1.0 98.7297973633 9.99999974738e-05 0.5 2.94621918329e-06
1 2 204 3 99 1.0 98.7296981812 9.99999974738e-05 0.5 2.94621918329e-06
1 2 205 3 100 1.0 98.729598999 9.99999974738e-05 0.5 2.94621918329e-06
1 2 206 3 101 1.0 98.7294998169 9.99999974738e-05 0.5 2.94621918329e-06
1 2 207 3 102 1.0 98.7294006348 9.99999974738e-05 0.5 2.94621918329e-06
1 2 208 3 103 1.0 98.7293014526 9.99999974738e-05 0.5 2.94621918329e-06
1 2 209 3 104 1.0 98.7292022705 9.99999974738e-05 0.5 2.94621918329e-06
1 2 210 3 105 1.0 98.7291030884 9.99999974738e-05 0.5 2.94621918329e-06
1 2 211 3 106 1.0 98.7289962769 9.99999974738e-05 0.5 2.94621918329e-06
1 2 212 3 107 1.0 98.7288970947 9.99999974738e-05 0.5 2.94621918329e-06
1 2 213 3 108 1.0 98.7287979126 9.99999974738e-05 0.5 2.94621918329e-06
1 2 214 3 109 1.0 98.7286987305 9.99999974738e-05 0.5 2.94621918329e-06
1 2 215 3 110 1.0 98.7285995483 9.99999974738e-05 0.5 2.94621918329e-06
1 2 216 3 111 1.0 98.7285003662 9.99999974738e-05 0.5 2.94621918329e-06
1 2 217 3 112 1.0 98.7284011841 9.99999974738e-05 0.5 2.94621918329e-06
1 2 218 3 113 1.0 98.728302002 9.99999974738e-05 0.5 2.94621918329e-06
1 2 219 3 114 1.0 98.7282028198 9.99999974738e-05 0.5 2.94621918329e-06
1 2 220 3 115 1.0 98.7281036377 9.99999974738e-05 0.5 2.94621918329e-06
1 2 221 3 116 1.0 98.7279968262 9.99999974738e-05 0.5 2.94621918329e-06
1 2 222 3 117 1.0 98.727897644 9.99999974738e-05 0.5 2.94621918329e-06
1 2 223 3 118 1.0 98.7277984619 9.99999974738e-05 0.5 2.94621918329e-06
1 2 224 3 119 1.0 98.7276992798 9.99999974738e-05 0.5 2.94621918329e-06
1 2 225 3 120 1.0 98.7276000977 9.99999974738e-05 0.5 2.94621918329e-06
1 2 226 3 121 1.0 98.7275009155 9.99999974738e-05 0.5 2.94621918329e-06
1 2 227 3 122 1.0 98.7274017334 9.99999974738e-05 0.5 2.94621918329e-06
1 2 228 3 123 1.0 98.7273025513 9.99999974738e-05 0.5 2.94621918329e-06
1 2 229 3 124 1.0 98.7272033691 9.99999974738e-05 0.5 2.94621918329e-06
1 2 230 3 125 1.0 98.7270965576 9.99999974738e-05 0.5 2.94621918329e-06
1 2 231 3 126 1.0 98.7269973755 9.99999974738e-05 0.5 2.94621918329e-06
1 2 232 3 127 1.0 98.7268981934 9.99999974738e-05 0.5 2.94621918329e-06
1 2 233 3 128 1.0 98.7267990112 9.99999974738e-05 0.5 2.94621918329e-06
1 2 234 3 129 1.0 98.7266998291 9.99999974738e-05 0.5 2.94621918329e-06
1 2 235 3 130 1.0 98.726600647 9.99999974738e-05 0.5 2.94621918329e-06
1 2 236 3 131 1.0 98.7265014648 9.99999974738e-05 0.5 2.94621918329e-06
1 2 237 3 132 1.0 98.7264022827 9.99999974738e-05 0.5 2.94621918329e-06
1 2 238 3 133 1.0 98.7263031006 9.99999974738e-05 0.5 2.94621918329e-06
1 2 239 3 134 1.0 98.7261962891 9.99999974738e-05 0.5 2.94621918329e-06
1 2 240 3 135 1.0 98.7260971069 9.99999974738e-05 0.5 2.94621918329e-06
1 2 241 3 136 1.0 98.7259979248 9.99999974738e-05 0.5 2.94621918329e-06
1 2 242 3 137 1.0 98.7258987427 9.99999974738e-05 0.5 2.94621918329e-06
1 2 243 3 138 1.0 98.7257995605 9.99999974738e-05 0.5 2.94621918329e-06
1 2 244 3 139 1.0 98.7257003784 9.99999974738e-05 0.5 2.94621918329e-06
1 2 245 3 140 1.0 98.7256011963 9.99999974738e-05 0.5 2.94621918329e-06
1 2 246 3 141 1.0 98.7255020142 9.99999974738e-05 0.5 2.94621918329e-06
1 2 247 3 142 1.0 98.725402832 9.99999974738e-05 0.5 2.94621918329e-06
1 2 248 3 143 1.0 98.7253036499 9.99999974738e-05 0.5 2.94621918329e-06
1 2 249 3 144 1.0 98.7251968384 9.99999974738e-05 0.5 2.94621918329e-06
1 2 250 3 145 1.0 98.7250976562 9.99999974738e-05 0.5 2.94621918329e-06
1 2 251 3 146 1.0 98.7249984741 9.99999974738e-05 0.5 2.94621918329e-06
1 2 252 3 147 1.0 98.724899292 9.99999974738e-05 0.5 2.94621918329e-06
1 2 253 3 148 1.0 98.7248001099 9.99999974738e-05 0.5 2.94621918329e-06
1 2 254 3 149 1.0 98.7247009277 9.99999974738e-05 0.5 2.94621918329e-06
1 2 255 3 150 1.0 98.7246017456 9.99999974738e-05 0.5 2.94621918329e-06
1 2 256 3 151 1.0 98.7245025635 9.99999974738e-05 0.5 2.94621918329e-06
1 2 257 3 152 1.0 98.7244033813 9.99999974738e-05 0.5 2.94621918329e-06
1 2 258 3 153 1.0 98.7242965698 9.99999974738e-05 0.5 2.94621918329e-06
1 2 259 3 154 1.0 98.7241973877 9.99999974738e-05 0.5 2.94621918329e-06
1 2 260 3 155 1.0 98.7240982056 9.99999974738e-05 0.5 2.94621918329e-06
1 2 261 3 156 1.0 98.7239990234 9.99999974738e-05 0.5 2.94621918329e-06
1 2 262 3 157 1.0 98.7238998413 9.99999974738e-05 0.5 2.94621918329e-06
1 2 263 3 158 1.0 98.7238006592 9.99999974738e-05 0.5 2.94621918329e-06
1 2 264 3 159 1.0 98.7237014771 9.99999974738e-05 0.5 2.94621918329e-06
1 2 265 3 160 1.0 98.7236022949 9.99999974738e-05 0.5 2.94621918329e-06
1 2 266 3 161 1.0 98.7235031128 9.99999974738e-05 0.5 2.94621918329e-06
1 2 267 3 162 1.0 98.7233963013 9.99999974738e-05 0.5 2.94621918329e-06
1 2 268 3 163 1.0 98.7232971191 9.99999974738e-05 0.5 2.94621918329e-06
1 2 269 3 164 1.0 98.723197937 9.99999974738e-05 0.5 2.94621918329e-06
1 2 270 3 165 1.0 98.7230987549 9.99999974738e-05 0.5 2.94621918329e-06
1 2 271 3 166 1.0 98.7229995728 9.99999974738e-05 0.5 2.94621918329e-06
1 2 272 3 167 1.0 98.7229003906 9.99999974738e-05 0.5 2.94621918329e-06
1 2 273 3 168 1.0 98.7228012085 9.99999974738e-05 0.5 2.94621918329e-06
1 2 274 3 169 1.0 98.7227020264 9.99999974738e-05 0.5 2.94621918329e-06
1 2 275 3 170 1.0 98.7226028442 9.99999974738e-05 0.5 2.94621918329e-06
1 2 276 3 171 1.0 98.7225036621 9.99999974738e-05 0.5 2.94621918329e-06
1 2 277 3 172 1.0 98.7223968506 9.99999974738e-05 0.5 2.94621918329e-06
1 2 278 3 173 1.0 98.7222976685 9.99999974738e-05 0.5 2.94621918329e-06
1 2 279 3 174 1.0 98.7221984863 9.99999974738e-05 0.5 2.94621918329e-06
1 2 280 3 175 1.0 98.7220993042 9.99999974738e-05 0.5 2.94621918329e-06
1 2 281 3 176 1.0 98.7220001221 9.99999974738e-05 0.5 2.94621918329e-06
1 2 282 4 1 1.0 98.7219009399 9.99999974738e-05 0.5 1.37507993259e-06
1 2 283 4 2 1.0 98.7218017578 9.99999974738e-05 0.5 1.37507993259e-06
1 2 284 4 3 1.0 98.7217025757 9.99999974738e-05 0.5 1.37507993259e-06
1 2 285 4 4 1.0 98.7216033936 9.99999974738e-05 0.5 1.37507993259e-06
1 2 286 4 5 1.0 98.721496582 9.99999974738e-05 0.5 1.37507993259e-06
1 2 287 4 6 1.0 98.7213973999 9.99999974738e-05 0.5 1.37507993259e-06
1 2 288 4 7 1.0 98.7212982178 9.99999974738e-05 0.5 1.37507993259e-06
1 2 289 4 8 1.0 98.7211990356 9.99999974738e-05 0.5 1.37507993259e-06
1 2 290 4 9 1.0 98.7210998535 9.99999974738e-05 0.5 1.37507993259e-06
1 2 291 4 10 1.0 98.7210006714 9.99999974738e-05 0.5 1.37507993259e-06
1 2 292 4 11 1.0 98.7209014893 9.99999974738e-05 0.5 1.37507993259e-06
1 2 293 4 12 1.0 98.7208023071 9.99999974738e-05 0.5 1.37507993259e-06
1 2 294 4 13 1.0 98.720703125 9.99999974738e-05 0.5 1.37507993259e-06
1 2 295 4 14 1.0 98.7205963135 9.99999974738e-05 0.5 1.37507993259e-06
1 2 296 4 15 1.0 98.7204971313 9.99999974738e-05 0.5 1.37507993259e-06
1 2 297 4 16 1.0 98.7203979492 9.99999974738e-05 0.5 1.37507993259e-06
1 2 298 4 17 1.0 98.7202987671 9.99999974738e-05 0.5 1.37507993259e-06
1 2 299 4 18 1.0 98.720199585 9.99999974738e-05 0.5 1.37507993259e-06
1 2 300 4 19 1.0 98.7201004028 9.99999974738e-05 0.5 1.37507993259e-06
1 2 301 4 20 1.0 98.7200012207 9.99999974738e-05 0.5 1.37507993259e-06
1 2 302 4 21 1.0 98.7199020386 9.99999974738e-05 0.5 1.37507993259e-06
1 2 303 4 22 1.0 98.7198028564 9.99999974738e-05 0.5 1.37507993259e-06
1 2 304 4 23 1.0 98.7197036743 9.99999974738e-05 0.5 1.37507993259e-06
1 2 305 4 24 1.0 98.7195968628 9.99999974738e-05 0.5 1.37507993259e-06
1 2 306 4 25 1.0 98.7194976807 9.99999974738e-05 0.5 1.37507993259e-06
1 2 307 4 26 1.0 98.7193984985 9.99999974738e-05 0.5 1.37507993259e-06
1 2 308 4 27 1.0 98.7192993164 9.99999974738e-05 0.5 1.37507993259e-06
1 2 309 4 28 1.0 98.7192001343 9.99999974738e-05 0.5 1.37507993259e-06
1 2 310 4 29 1.0 98.7191009521 9.99999974738e-05 0.5 1.37507993259e-06
1 2 311 4 30 1.0 98.71900177 9.99999974738e-05 0.5 1.37507993259e-06
1 2 312 4 31 1.0 98.7189025879 9.99999974738e-05 0.5 1.37507993259e-06
1 2 313 4 32 1.0 98.7188034058 9.99999974738e-05 0.5 1.37507993259e-06
1 2 314 4 33 1.0 98.7186965942 9.99999974738e-05 0.5 1.37507993259e-06
1 2 315 4 34 1.0 98.7185974121 9.99999974738e-05 0.5 1.37507993259e-06
1 2 316 4 35 1.0 98.71849823 9.99999974738e-05 0.5 1.37507993259e-06
1 2 317 4 36 1.0 98.7183990479 9.99999974738e-05 0.5 1.37507993259e-06
1 2 318 4 37 1.0 98.7182998657 9.99999974738e-05 0.5 1.37507993259e-06
1 2 319 4 38 1.0 98.7182006836 9.99999974738e-05 0.5 1.37507993259e-06
1 2 320 4 39 1.0 98.7181015015 9.99999974738e-05 0.5 1.37507993259e-06
1 2 321 4 40 1.0 98.7180023193 9.99999974738e-05 0.5 1.37507993259e-06
1 2 322 4 41 1.0 98.7179031372 9.99999974738e-05 0.5 1.37507993259e-06
1 2 323 4 42 1.0 98.7177963257 9.99999974738e-05 0.5 1.37507993259e-06
1 2 324 4 43 1.0 98.7176971436 9.99999974738e-05 0.5 1.37507993259e-06
1 2 325 4 44 1.0 98.7175979614 9.99999974738e-05 0.5 1.37507993259e-06
1 2 326 4 45 1.0 98.7174987793 9.99999974738e-05 0.5 1.37507993259e-06
1 2 327 4 46 1.0 98.7173995972 9.99999974738e-05 0.5 1.37507993259e-06
1 2 328 4 47 1.0 98.717300415 9.99999974738e-05 0.5 1.37507993259e-06
1 2 329 4 48 1.0 98.7172012329 9.99999974738e-05 0.5 1.37507993259e-06
1 2 330 4 49 1.0 98.7171020508 9.99999974738e-05 0.5 1.37507993259e-06
1 2 331 4 50 1.0 98.7170028687 9.99999974738e-05 0.5 1.37507993259e-06
1 2 332 4 51 1.0 98.7169036865 9.99999974738e-05 0.5 1.37507993259e-06
1 2 333 4 52 1.0 98.716796875 9.99999974738e-05 0.5 1.37507993259e-06
1 2 334 4 53 1.0 98.7166976929 9.99999974738e-05 0.5 1.37507993259e-06
1 2 335 4 54 1.0 98.7165985107 9.99999974738e-05 0.5 1.37507993259e-06
1 2 336 4 55 1.0 98.7164993286 9.99999974738e-05 0.5 1.37507993259e-06
1 2 337 4 56 1.0 98.7164001465 9.99999974738e-05 0.5 1.37507993259e-06
1 2 338 4 57 1.0 98.7163009644 9.99999974738e-05 0.5 1.37507993259e-06
1 2 339 4 58 1.0 98.7162017822 9.99999974738e-05 0.5 1.37507993259e-06
1 2 340 4 59 1.0 98.7161026001 9.99999974738e-05 0.5 1.37507993259e-06
1 2 341 4 60 1.0 98.716003418 9.99999974738e-05 0.5 1.37507993259e-06
1 2 342 4 61 1.0 98.7158966064 9.99999974738e-05 0.5 1.37507993259e-06
1 2 343 4 62 1.0 98.7157974243 9.99999974738e-05 0.5 1.37507993259e-06
1 2 344 4 63 1.0 98.7156982422 9.99999974738e-05 0.5 1.37507993259e-06
1 2 345 4 64 1.0 98.7155990601 9.99999974738e-05 0.5 1.37507993259e-06
1 2 346 4 65 1.0 98.7154998779 9.99999974738e-05 0.5 1.37507993259e-06
1 2 347 4 66 1.0 98.7154006958 9.99999974738e-05 0.5 1.37507993259e-06
1 2 348 4 67 1.0 98.7153015137 9.99999974738e-05 0.5 1.37507993259e-06
1 2 349 4 68 1.0 98.7152023315 9.99999974738e-05 0.5 1.37507993259e-06
1 2 350 4 69 1.0 98.7151031494 9.99999974738e-05 0.5 1.37507993259e-06
1 2 351 4 70 1.0 98.7149963379 9.99999974738e-05 0.5 1.37507993259e-06
1 2 352 4 71 1.0 98.7148971558 9.99999974738e-05 0.5 1.37507993259e-06
1 2 353 4 72 1.0 98.7147979736 9.99999974738e-05 0.5 1.37507993259e-06
1 2 354 4 73 1.0 98.7146987915 9.99999974738e-05 0.5 1.37507993259e-06
1 2 355 4 74 1.0 98.7145996094 9.99999974738e-05 0.5 1.37507993259e-06
1 2 356 4 75 1.0 98.7145004272 9.99999974738e-05 0.5 1.37507993259e-06
1 2 357 4 76 1.0 98.7144012451 9.99999974738e-05 0.5 1.37507993259e-06
1 2 358 4 77 1.0 98.714302063 9.99999974738e-05 0.5 1.37507993259e-06
1 2 359 4 78 1.0 98.7142028809 9.99999974738e-05 0.5 1.37507993259e-06
1 2 360 4 79 1.0 98.7141036987 9.99999974738e-05 0.5 1.37507993259e-06
1 2 361 4 80 1.0 98.7139968872 9.99999974738e-05 0.5 1.37507993259e-06
1 2 362 4 81 1.0 98.7138977051 9.99999974738e-05 0.5 1.37507993259e-06
1 2 363 4 82 1.0 98.7137985229 9.99999974738e-05 0.5 1.37507993259e-06
1 2 364 4 83 1.0 98.7136993408 9.99999974738e-05 0.5 1.37507993259e-06
1 2 365 4 84 1.0 98.7136001587 9.99999974738e-05 0.5 1.37507993259e-06
1 2 366 4 85 1.0 98.7135009766 9.99999974738e-05 0.5 1.37507993259e-06
1 2 367 4 86 1.0 98.7134017944 9.99999974738e-05 0.5 1.37507993259e-06
1 2 368 4 87 1.0 98.7133026123 9.99999974738e-05 0.5 1.37507993259e-06
1 2 369 4 88 1.0 98.7132034302 9.99999974738e-05 0.5 1.37507993259e-06
1 2 370 4 89 1.0 98.7130966187 9.99999974738e-05 0.5 1.37507993259e-06
1 2 371 4 90 1.0 98.7129974365 9.99999974738e-05 0.5 1.37507993259e-06
1 2 372 4 91 1.0 98.7128982544 9.99999974738e-05 0.5 1.37507993259e-06
1 2 373 4 92 1.0 98.7127990723 9.99999974738e-05 0.5 1.37507993259e-06
1 2 374 4 93 1.0 98.7126998901 9.99999974738e-05 0.5 1.37507993259e-06
1 2 375 4 94 1.0 98.712600708 9.99999974738e-05 0.5 1.37507993259e-06
1 2 376 4 95 1.0 98.7125015259 9.99999974738e-05 0.5 1.37507993259e-06
1 2 377 4 96 1.0 98.7124023438 9.99999974738e-05 0.5 1.37507993259e-06
1 2 378 4 97 1.0 98.7123031616 9.99999974738e-05 0.5 1.37507993259e-06
1 2 379 4 98 1.0 98.7121963501 9.99999974738e-05 0.5 1.37507993259e-06
1 2 380 4 99 1.0 98.712097168 9.99999974738e-05 0.5 1.37507993259e-06
1 2 381 4 100 1.0 98.7119979858 9.99999974738e-05 0.5 1.37507993259e-06
1 2 382 4 101 1.0 98.7118988037 9.99999974738e-05 0.5 1.37507993259e-06
1 2 383 4 102 1.0 98.7117996216 9.99999974738e-05 0.5 1.37507993259e-06
1 2 384 4 103 1.0 98.7117004395 9.99999974738e-05 0.5 1.37507993259e-06
1 2 385 4 104 1.0 98.7116012573 9.99999974738e-05 0.5 1.37507993259e-06
1 2 386 4 105 1.0 98.7115020752 9.99999974738e-05 0.5 1.37507993259e-06
1 2 387 4 106 1.0 98.7114028931 9.99999974738e-05 0.5 1.37507993259e-06
1 2 388 4 107 1.0 98.7113037109 9.99999974738e-05 0.5 1.37507993259e-06
1 2 389 4 108 1.0 98.7111968994 9.99999974738e-05 0.5 1.37507993259e-06
1 2 390 4 109 1.0 98.7110977173 9.99999974738e-05 0.5 1.37507993259e-06
1 2 391 4 110 1.0 98.7109985352 9.99999974738e-05 0.5 1.37507993259e-06
1 2 392 4 111 1.0 98.710899353 9.99999974738e-05 0.5 1.37507993259e-06
1 2 393 4 112 1.0 98.7108001709 9.99999974738e-05 0.5 1.37507993259e-06
1 2 394 4 113 1.0 98.7107009888 9.99999974738e-05 0.5 1.37507993259e-06
1 2 395 4 114 1.0 98.7106018066 9.99999974738e-05 0.5 1.37507993259e-06
1 2 396 4 115 1.0 98.7105026245 9.99999974738e-05 0.5 1.37507993259e-06
1 2 397 4 116 1.0 98.7104034424 9.99999974738e-05 0.5 1.37507993259e-06
1 2 398 4 117 1.0 98.7102966309 9.99999974738e-05 0.5 1.37507993259e-06
1 2 399 4 118 1.0 98.7101974487 9.99999974738e-05 0.5 1.37507993259e-06
1 2 400 4 119 1.0 98.7100982666 9.99999974738e-05 0.5 1.37507993259e-06
1 2 401 4 120 1.0 98.7099990845 9.99999974738e-05 0.5 1.37507993259e-06
1 2 402 4 121 1.0 98.7098999023 9.99999974738e-05 0.5 1.37507993259e-06
1 2 403 4 122 1.0 98.7098007202 9.99999974738e-05 0.5 1.37507993259e-06
1 2 404 4 123 1.0 98.7097015381 9.99999974738e-05 0.5 1.37507993259e-06
1 2 405 4 124 1.0 98.709602356 9.99999974738e-05 0.5 1.37507993259e-06
1 2 406 4 125 1.0 98.7095031738 9.99999974738e-05 0.5 1.37507993259e-06
1 2 407 4 126 1.0 98.7093963623 9.99999974738e-05 0.5 1.37507993259e-06
1 2 408 4 127 1.0 98.7092971802 9.99999974738e-05 0.5 1.37507993259e-06
1 2 409 4 128 1.0 98.709197998 9.99999974738e-05 0.5 1.37507993259e-06
1 2 410 4 129 1.0 98.7090988159 9.99999974738e-05 0.5 1.37507993259e-06
1 2 411 4 130 1.0 98.7089996338 9.99999974738e-05 0.5 1.37507993259e-06
1 2 412 4 131 1.0 98.7089004517 9.99999974738e-05 0.5 1.37507993259e-06
1 2 413 4 132 1.0 98.7088012695 9.99999974738e-05 0.5 1.37507993259e-06
1 2 414 4 133 1.0 98.7087020874 9.99999974738e-05 0.5 1.37507993259e-06
1 2 415 4 134 1.0 98.7086029053 9.99999974738e-05 0.5 1.37507993259e-06
1 2 416 4 135 1.0 98.7085037231 9.99999974738e-05 0.5 1.37507993259e-06
1 2 417 4 136 1.0 98.7083969116 9.99999974738e-05 0.5 1.37507993259e-06
1 2 418 4 137 1.0 98.7082977295 9.99999974738e-05 0.5 1.37507993259e-06
1 2 419 4 138 1.0 98.7081985474 9.99999974738e-05 0.5 1.37507993259e-06
1 2 420 4 139 1.0 98.7080993652 9.99999974738e-05 0.5 1.37507993259e-06
1 2 421 4 140 1.0 98.7080001831 9.99999974738e-05 0.5 1.37507993259e-06
1 2 422 4 141 1.0 98.707901001 9.99999974738e-05 0.5 1.37507993259e-06