# NWT package for  MODFLOW-NWT, generated by Flopy.
 1.000e-04 5.000e+00      5000 1.000e-06         2         1         1    SIMPLE
