# MF-NWT/MT3D-USGS LINKER FILE
#
OUTPUT_FILE_NAME CrnkNic.ftl
OUTPUT_FILE_UNIT
OUTPUT_FILE_HEADER extended
OUTPUT_FILE_FORMAT formatted
PACKAGE_FLOWS SFR
