#Basic File for Equivalent MODFLOW model of OTIS application 1 created by R. Runkel

INTERNAL 1 (free) -1                           #Lay 1 - 650 columns
-1 -1 -1 -1 -1 -1 -1 -1 -1 -1 -1 -1 -1 -1 -1 -1 -1 -1 -1 -1 -1 -1 -1 -1 -1 -1 -1 -1 -1 -1 -1 -1 -1 -1 -1 -1 -1 -1 -1 -1 -1 -1 -1 -1 -1 -1 -1 -1 -1 -1 -1 -1 -1 -1 -1 -1 -1 -1 -1 -1 -1 -1 -1 -1 -1 -1 -1 -1 -1 -1 -1 -1 -1 -1 -1 -1 -1 -1 -1 -1 -1 -1 -1 -1 -1 -1 -1 -1 -1 -1 -1 -1 -1 -1 -1 -1 -1 -1 -1 -1 -1 -1 -1 -1 -1 -1 -1 -1 -1 -1 -1 -1 -1 -1 -1 -1 -1 -1 -1 -1 -1 -1 -1 -1 -1 -1 -1 -1 -1 -1 -1 -1 -1 -1 -1 -1 -1 -1 -1 -1 -1 -1 -1 -1 -1 -1 -1 -1 -1 -1 -1 -1 -1 -1 -1 -1 -1 -1 -1 -1 -1 -1 -1 -1 -1 -1 -1 -1 -1 -1 -1 -1 -1 -1 -1 -1 -1 -1 -1 -1 -1 -1 -1 -1 -1 -1 -1 -1 -1 -1 -1 -1 -1 -1 -1 -1 -1 -1 -1 -1 -1 -1 -1 -1 -1 -1 -1 -1 -1 -1 -1 -1 -1 -1 -1 -1 -1 -1 -1 -1 -1 -1 -1 -1 -1 -1 -1 -1 -1 -1 -1 -1 -1 -1 -1 -1 -1 -1 -1 -1 -1 -1 -1 -1 -1 -1 -1 -1 -1 -1 -1 -1 -1 -1 -1 -1 -1 -1 -1 -1 -1 -1 -1 -1 -1 -1 -1 -1 -1 -1 -1 -1 -1 -1 -1 -1 -1 -1 -1 -1 -1 -1 -1 -1 -1 -1 -1 -1 -1 -1 -1 -1 -1 -1 -1 -1 -1 -1 -1 -1 -1 -1 -1 -1 -1 -1 -1 -1 -1 -1 -1 -1 -1 -1 -1 -1 -1 -1 -1 -1 -1 -1 -1 -1 -1 -1 -1 -1 -1 -1 -1 -1 -1 -1 -1 -1 -1 -1 -1 -1 -1 -1 -1 -1 -1 -1 -1 -1 -1 -1 -1 -1 -1 -1 -1 -1 -1 -1 -1 -1 -1 -1 -1 -1 -1 -1 -1 -1 -1 -1 -1 -1 -1 -1 -1 -1 -1 -1 -1 -1 -1 -1 -1 -1 -1 -1 -1 -1 -1 -1 -1 -1 -1 -1 -1 -1 -1 -1 -1 -1 -1 -1 -1 -1 -1 -1 -1 -1 -1 -1 -1 -1 -1 -1 -1 -1 -1 -1 -1 -1 -1 -1 -1 -1 -1 -1 -1 -1 -1 -1 -1 -1 -1 -1 -1 -1 -1 -1 -1 -1 -1 -1 -1 -1 -1 -1 -1 -1 -1 -1 -1 -1 -1 -1 -1 -1 -1 -1 -1 -1 -1 -1 -1 -1 -1 -1 -1 -1 -1 -1 -1 -1 -1 -1 -1 -1 -1 -1 -1 -1 -1 -1 -1 -1 -1 -1 -1 -1 -1 -1 -1 -1 -1 -1 -1 -1 -1 -1 -1 -1 -1 -1 -1 -1 -1 -1 -1 -1 -1 -1 -1 -1 -1 -1 -1 -1 -1 -1 -1 -1 -1 -1 -1 -1 -1 -1 -1 -1 -1 -1 -1 -1 -1 -1 -1 -1 -1 -1 -1 -1 -1 -1 -1 -1 -1 -1 -1 -1 -1 -1 -1 -1 -1 -1 -1 -1 -1 -1 -1 -1 -1 -1 -1 -1 -1 -1 -1 -1 -1 -1 -1 -1 -1 -1 -1 -1 -1 -1 -1 -1 -1 -1 -1 -1 -1 -1 -1 -1 -1 -1 -1 -1 -1 -1 -1 -1 -1 -1 -1 -1 -1 -1 -1 -1 -1 -1 -1 -1 -1 -1 -1 -1 -1 -1 -1 -1 -1 -1 -1 -1 -1 -1 -1 -1 -1 -1 -1 -1 -1 -1 -1 -1 -1 -1 -1 -1 -1 -1 -1 -1 -1 -1 -1 -1 -1 -1 -1 -1 -1 -1
 1  1  1  1  1  1  1  1  1  1  1  1  1  1  1  1  1  1  1  1  1  1  1  1  1  1  1  1  1  1  1  1  1  1  1  1  1  1  1  1  1  1  1  1  1  1  1  1  1  1  1  1  1  1  1  1  1  1  1  1  1  1  1  1  1  1  1  1  1  1  1  1  1  1  1  1  1  1  1  1  1  1  1  1  1  1  1  1  1  1  1  1  1  1  1  1  1  1  1  1  1  1  1  1  1  1  1  1  1  1  1  1  1  1  1  1  1  1  1  1  1  1  1  1  1  1  1  1  1  1  1  1  1  1  1  1  1  1  1  1  1  1  1  1  1  1  1  1  1  1  1  1  1  1  1  1  1  1  1  1  1  1  1  1  1  1  1  1  1  1  1  1  1  1  1  1  1  1  1  1  1  1  1  1  1  1  1  1  1  1  1  1  1  1  1  1  1  1  1  1  1  1  1  1  1  1  1  1  1  1  1  1  1  1  1  1  1  1  1  1  1  1  1  1  1  1  1  1  1  1  1  1  1  1  1  1  1  1  1  1  1  1  1  1  1  1  1  1  1  1  1  1  1  1  1  1  1  1  1  1  1  1  1  1  1  1  1  1  1  1  1  1  1  1  1  1  1  1  1  1  1  1  1  1  1  1  1  1  1  1  1  1  1  1  1  1  1  1  1  1  1  1  1  1  1  1  1  1  1  1  1  1  1  1  1  1  1  1  1  1  1  1  1  1  1  1  1  1  1  1  1  1  1  1  1  1  1  1  1  1  1  1  1  1  1  1  1  1  1  1  1  1  1  1  1  1  1  1  1  1  1  1  1  1  1  1  1  1  1  1  1  1  1  1  1  1  1  1  1  1  1  1  1  1  1  1  1  1  1  1  1  1  1  1  1  1  1  1  1  1  1  1  1  1  1  1  1  1  1  1  1  1  1  1  1  1  1  1  1  1  1  1  1  1  1  1  1  1  1  1  1  1  1  1  1  1  1  1  1  1  1  1  1  1  1  1  1  1  1  1  1  1  1  1  1  1  1  1  1  1  1  1  1  1  1  1  1  1  1  1  1  1  1  1  1  1  1  1  1  1  1  1  1  1  1  1  1  1  1  1  1  1  1  1  1  1  1  1  1  1  1  1  1  1  1  1  1  1  1  1  1  1  1  1  1  1  1  1  1  1  1  1  1  1  1  1  1  1  1  1  1  1  1  1  1  1  1  1  1  1  1  1  1  1  1  1  1  1  1  1  1  1  1  1  1  1  1  1  1  1  1  1  1  1  1  1  1  1  1  1  1  1  1  1  1  1  1  1  1  1  1  1  1  1  1  1  1  1  1  1  1  1  1  1  1  1  1  1  1  1  1  1  1  1  1  1  1  1  1  1  1  1  1  1  1  1  1  1  1  1  1  1  1  1  1  1  1  1  1  1  1  1  1  1  1  1  1  1  1  1  1  1  1  1  1  1  1  1  1  1
-1 -1 -1 -1 -1 -1 -1 -1 -1 -1 -1 -1 -1 -1 -1 -1 -1 -1 -1 -1 -1 -1 -1 -1 -1 -1 -1 -1 -1 -1 -1 -1 -1 -1 -1 -1 -1 -1 -1 -1 -1 -1 -1 -1 -1 -1 -1 -1 -1 -1 -1 -1 -1 -1 -1 -1 -1 -1 -1 -1 -1 -1 -1 -1 -1 -1 -1 -1 -1 -1 -1 -1 -1 -1 -1 -1 -1 -1 -1 -1 -1 -1 -1 -1 -1 -1 -1 -1 -1 -1 -1 -1 -1 -1 -1 -1 -1 -1 -1 -1 -1 -1 -1 -1 -1 -1 -1 -1 -1 -1 -1 -1 -1 -1 -1 -1 -1 -1 -1 -1 -1 -1 -1 -1 -1 -1 -1 -1 -1 -1 -1 -1 -1 -1 -1 -1 -1 -1 -1 -1 -1 -1 -1 -1 -1 -1 -1 -1 -1 -1 -1 -1 -1 -1 -1 -1 -1 -1 -1 -1 -1 -1 -1 -1 -1 -1 -1 -1 -1 -1 -1 -1 -1 -1 -1 -1 -1 -1 -1 -1 -1 -1 -1 -1 -1 -1 -1 -1 -1 -1 -1 -1 -1 -1 -1 -1 -1 -1 -1 -1 -1 -1 -1 -1 -1 -1 -1 -1 -1 -1 -1 -1 -1 -1 -1 -1 -1 -1 -1 -1 -1 -1 -1 -1 -1 -1 -1 -1 -1 -1 -1 -1 -1 -1 -1 -1 -1 -1 -1 -1 -1 -1 -1 -1 -1 -1 -1 -1 -1 -1 -1 -1 -1 -1 -1 -1 -1 -1 -1 -1 -1 -1 -1 -1 -1 -1 -1 -1 -1 -1 -1 -1 -1 -1 -1 -1 -1 -1 -1 -1 -1 -1 -1 -1 -1 -1 -1 -1 -1 -1 -1 -1 -1 -1 -1 -1 -1 -1 -1 -1 -1 -1 -1 -1 -1 -1 -1 -1 -1 -1 -1 -1 -1 -1 -1 -1 -1 -1 -1 -1 -1 -1 -1 -1 -1 -1 -1 -1 -1 -1 -1 -1 -1 -1 -1 -1 -1 -1 -1 -1 -1 -1 -1 -1 -1 -1 -1 -1 -1 -1 -1 -1 -1 -1 -1 -1 -1 -1 -1 -1 -1 -1 -1 -1 -1 -1 -1 -1 -1 -1 -1 -1 -1 -1 -1 -1 -1 -1 -1 -1 -1 -1 -1 -1 -1 -1 -1 -1 -1 -1 -1 -1 -1 -1 -1 -1 -1 -1 -1 -1 -1 -1 -1 -1 -1 -1 -1 -1 -1 -1 -1 -1 -1 -1 -1 -1 -1 -1 -1 -1 -1 -1 -1 -1 -1 -1 -1 -1 -1 -1 -1 -1 -1 -1 -1 -1 -1 -1 -1 -1 -1 -1 -1 -1 -1 -1 -1 -1 -1 -1 -1 -1 -1 -1 -1 -1 -1 -1 -1 -1 -1 -1 -1 -1 -1 -1 -1 -1 -1 -1 -1 -1 -1 -1 -1 -1 -1 -1 -1 -1 -1 -1 -1 -1 -1 -1 -1 -1 -1 -1 -1 -1 -1 -1 -1 -1 -1 -1 -1 -1 -1 -1 -1 -1 -1 -1 -1 -1 -1 -1 -1 -1 -1 -1 -1 -1 -1 -1 -1 -1 -1 -1 -1 -1 -1 -1 -1 -1 -1 -1 -1 -1 -1 -1 -1 -1 -1 -1 -1 -1 -1 -1 -1 -1 -1 -1 -1 -1 -1 -1 -1 -1 -1 -1 -1 -1 -1 -1 -1 -1 -1 -1 -1 -1 -1 -1 -1 -1 -1 -1 -1 -1 -1 -1 -1 -1 -1 -1 -1 -1 -1 -1 -1 -1 -1 -1 -1 -1 -1 -1 -1 -1 -1 -1 -1 -1 -1 -1 -1 -1 -1 -1 -1 -1 -1 -1 -1 -1 -1 -1 -1 -1 -1 -1 -1 -1 -1 -1 -1 -1 -1 -1 -1 -1 -1 -1 -1 -1 -1 -1 -1 -1 -1 -1 -1 -1 -1 -1 -1 -1 -1 -1 -1 -1 -1 -1 -1 -1 -1 -1
-999                                           #HNOFLO
INTERNAL 1 (free) -1                           #Lay 1 - Starting Head 
 99.50000000 99.49990000 99.49980000 99.49970000 99.49960000 99.49950000 99.49940000 99.49930000 99.49920000 99.49910000 99.49900000 99.49890000 99.49880000 99.49870000 99.49860000 99.49850000 99.49840000 99.49830000 99.49820000 99.49810000 99.49800000 99.49790000 99.49780000 99.49770000 99.49760000 99.49750000 99.49740000 99.49730000 99.49720000 99.49710000 99.49700000 99.49690000 99.49680000 99.49670000 99.49660000 99.49650000 99.49640000 99.49630000 99.49620000 99.49610000 99.49600000 99.49590000 99.49580000 99.49570000 99.49560000 99.49550000 99.49540000 99.49530000 99.49520000 99.49510000 99.49500000 99.49490000 99.49480000 99.49470000 99.49460000 99.49450000 99.49440000 99.49430000 99.49420000 99.49410000 99.49400000 99.49390000 99.49380000 99.49370000 99.49360000 99.49350000 99.49340000 99.49330000 99.49320000 99.49310000 99.49300000 99.49290000 99.49280000 99.49270000 99.49260000 99.49250000 99.49240000 99.49230000 99.49220000 99.49210000 99.49200000 99.49190000 99.49180000 99.49170000 99.49160000 99.49150000 99.49140000 99.49130000 99.49120000 99.49110000 99.49100000 99.49090000 99.49080000 99.49070000 99.49060000 99.49050000 99.49040000 99.49030000 99.49020000 99.49010000 99.49000000 99.48990000 99.48980000 99.48970000 99.48960000 99.48950000 99.48940000 99.48930000 99.48920000 99.48910000 99.48900000 99.48890000 99.48880000 99.48870000 99.48860000 99.48850000 99.48840000 99.48830000 99.48820000 99.48810000 99.48800000 99.48790000 99.48780000 99.48770000 99.48760000 99.48750000 99.48740000 99.48730000 99.48720000 99.48710000 99.48700000 99.48690000 99.48680000 99.48670000 99.48660000 99.48650000 99.48640000 99.48630000 99.48620000 99.48610000 99.48600000 99.48590000 99.48580000 99.48570000 99.48560000 99.48550000 99.48540000 99.48530000 99.48520000 99.48510000 99.48500000 99.48490000 99.48480000 99.48470000 99.48460000 99.48450000 99.48440000 99.48430000 99.48420000 99.48410000 99.48400000 99.48390000 99.48380000 99.48370000 99.48360000 99.48350000 99.48340000 99.48330000 99.48320000 99.48310000 99.48300000 99.48290000 99.48280000 99.48270000 99.48260000 99.48250000 99.48240000 99.48230000 99.48220000 99.48210000 99.48200000 99.48190000 99.48180000 99.48170000 99.48160000 99.48150000 99.48140000 99.48130000 99.48120000 99.48110000 99.48100000 99.48090000 99.48080000 99.48070000 99.48060000 99.48050000 99.48040000 99.48030000 99.48020000 99.48010000 99.48000000 99.47990000 99.47980000 99.47970000 99.47960000 99.47950000 99.47940000 99.47930000 99.47920000 99.47910000 99.47900000 99.47890000 99.47880000 99.47870000 99.47860000 99.47850000 99.47840000 99.47830000 99.47820000 99.47810000 99.47800000 99.47790000 99.47780000 99.47770000 99.47760000 99.47750000 99.47740000 99.47730000 99.47720000 99.47710000 99.47700000 99.47690000 99.47680000 99.47670000 99.47660000 99.47650000 99.47640000 99.47630000 99.47620000 99.47610000 99.47600000 99.47590000 99.47580000 99.47570000 99.47560000 99.47550000 99.47540000 99.47530000 99.47520000 99.47510000 99.47500000 99.47490000 99.47480000 99.47470000 99.47460000 99.47450000 99.47440000 99.47430000 99.47420000 99.47410000 99.47400000 99.47390000 99.47380000 99.47370000 99.47360000 99.47350000 99.47340000 99.47330000 99.47320000 99.47310000 99.47300000 99.47290000 99.47280000 99.47270000 99.47260000 99.47250000 99.47240000 99.47230000 99.47220000 99.47210000 99.47200000 99.47190000 99.47180000 99.47170000 99.47160000 99.47150000 99.47140000 99.47130000 99.47120000 99.47110000 99.47100000 99.47090000 99.47080000 99.47070000 99.47060000 99.47050000 99.47040000 99.47030000 99.47020000 99.47010000 99.47000000 99.46990000 99.46980000 99.46970000 99.46960000 99.46950000 99.46940000 99.46930000 99.46920000 99.46910000 99.46900000 99.46890000 99.46880000 99.46870000 99.46860000 99.46850000 99.46840000 99.46830000 99.46820000 99.46810000 99.46800000 99.46790000 99.46780000 99.46770000 99.46760000 99.46750000 99.46740000 99.46730000 99.46720000 99.46710000 99.46700000 99.46690000 99.46680000 99.46670000 99.46660000 99.46650000 99.46640000 99.46630000 99.46620000 99.46610000 99.46600000 99.46590000 99.46580000 99.46570000 99.46560000 99.46550000 99.46540000 99.46530000 99.46520000 99.46510000 99.46500000 99.46490000 99.46480000 99.46470000 99.46460000 99.46450000 99.46440000 99.46430000 99.46420000 99.46410000 99.46400000 99.46390000 99.46380000 99.46370000 99.46360000 99.46350000 99.46340000 99.46330000 99.46320000 99.46310000 99.46300000 99.46290000 99.46280000 99.46270000 99.46260000 99.46250000 99.46240000 99.46230000 99.46220000 99.46210000 99.46200000 99.46190000 99.46180000 99.46170000 99.46160000 99.46150000 99.46140000 99.46130000 99.46120000 99.46110000 99.46100000 99.46090000 99.46080000 99.46070000 99.46060000 99.46050000 99.46040000 99.46030000 99.46020000 99.46010000 99.46000000 99.45990000 99.45980000 99.45970000 99.45960000 99.45950000 99.45940000 99.45930000 99.45920000 99.45910000 99.45900000 99.45890000 99.45880000 99.45870000 99.45860000 99.45850000 99.45840000 99.45830000 99.45820000 99.45810000 99.45800000 99.45790000 99.45780000 99.45770000 99.45760000 99.45750000 99.45740000 99.45730000 99.45720000 99.45710000 99.45700000 99.45690000 99.45680000 99.45670000 99.45660000 99.45650000 99.45640000 99.45630000 99.45620000 99.45610000 99.45600000 99.45590000 99.45580000 99.45570000 99.45560000 99.45550000 99.45540000 99.45530000 99.45520000 99.45510000 99.45500000 99.45490000 99.45480000 99.45470000 99.45460000 99.45450000 99.45440000 99.45430000 99.45420000 99.45410000 99.45400000 99.45390000 99.45380000 99.45370000 99.45360000 99.45350000 99.45340000 99.45330000 99.45320000 99.45310000 99.45300000 99.45290000 99.45280000 99.45270000 99.45260000 99.45250000 99.45240000 99.45230000 99.45220000 99.45210000 99.45200000 99.45190000 99.45180000 99.45170000 99.45160000 99.45150000 99.45140000 99.45130000 99.45120000 99.45110000 99.45100000 99.45090000 99.45080000 99.45070000 99.45060000 99.45050000 99.45040000 99.45030000 99.45020000 99.45010000 99.45000000 99.44990000 99.44980000 99.44970000 99.44960000 99.44950000 99.44940000 99.44930000 99.44920000 99.44910000 99.44900000 99.44890000 99.44880000 99.44870000 99.44860000 99.44850000 99.44840000 99.44830000 99.44820000 99.44810000 99.44800000 99.44790000 99.44780000 99.44770000 99.44760000 99.44750000 99.44740000 99.44730000 99.44720000 99.44710000 99.44700000 99.44690000 99.44680000 99.44670000 99.44660000 99.44650000 99.44640000 99.44630000 99.44620000 99.44610000 99.44600000 99.44590000 99.44580000 99.44570000 99.44560000 99.44550000 99.44540000 99.44530000 99.44520000 99.44510000 99.44500000 99.44490000 99.44480000 99.44470000 99.44460000 99.44450000 99.44440000 99.44430000 99.44420000 99.44410000 99.44400000 99.44390000 99.44380000 99.44370000 99.44360000 99.44350000 99.44340000 99.44330000 99.44320000 99.44310000 99.44300000 99.44290000 99.44280000 99.44270000 99.44260000 99.44250000 99.44240000 99.44230000 99.44220000 99.44210000 99.44200000 99.44190000 99.44180000 99.44170000 99.44160000 99.44150000 99.44140000 99.44130000 99.44120000 99.44110000 99.44100000 99.44090000 99.44080000 99.44070000 99.44060000 99.44050000 99.44040000 99.44030000 99.44020000 99.44010000 99.44000000 99.43990000 99.43980000 99.43970000 99.43960000 99.43950000 99.43940000 99.43930000 99.43920000 99.43910000 99.43900000 99.43890000 99.43880000 99.43870000 99.43860000 99.43850000 99.43840000 99.43830000 99.43820000 99.43810000 99.43800000 99.43790000 99.43780000 99.43770000 99.43760000 99.43750000 99.43740000 99.43730000 99.43720000 99.43710000 99.43700000 99.43690000 99.43680000 99.43670000 99.43660000 99.43650000 99.43640000 99.43630000 99.43620000 99.43610000 99.43600000 99.43590000 99.43580000 99.43570000 99.43560000 99.43550000 99.43540000 99.43530000 99.43520000 99.43510000
 99.50000000 99.49990000 99.49980000 99.49970000 99.49960000 99.49950000 99.49940000 99.49930000 99.49920000 99.49910000 99.49900000 99.49890000 99.49880000 99.49870000 99.49860000 99.49850000 99.49840000 99.49830000 99.49820000 99.49810000 99.49800000 99.49790000 99.49780000 99.49770000 99.49760000 99.49750000 99.49740000 99.49730000 99.49720000 99.49710000 99.49700000 99.49690000 99.49680000 99.49670000 99.49660000 99.49650000 99.49640000 99.49630000 99.49620000 99.49610000 99.49600000 99.49590000 99.49580000 99.49570000 99.49560000 99.49550000 99.49540000 99.49530000 99.49520000 99.49510000 99.49500000 99.49490000 99.49480000 99.49470000 99.49460000 99.49450000 99.49440000 99.49430000 99.49420000 99.49410000 99.49400000 99.49390000 99.49380000 99.49370000 99.49360000 99.49350000 99.49340000 99.49330000 99.49320000 99.49310000 99.49300000 99.49290000 99.49280000 99.49270000 99.49260000 99.49250000 99.49240000 99.49230000 99.49220000 99.49210000 99.49200000 99.49190000 99.49180000 99.49170000 99.49160000 99.49150000 99.49140000 99.49130000 99.49120000 99.49110000 99.49100000 99.49090000 99.49080000 99.49070000 99.49060000 99.49050000 99.49040000 99.49030000 99.49020000 99.49010000 99.49000000 99.48990000 99.48980000 99.48970000 99.48960000 99.48950000 99.48940000 99.48930000 99.48920000 99.48910000 99.48900000 99.48890000 99.48880000 99.48870000 99.48860000 99.48850000 99.48840000 99.48830000 99.48820000 99.48810000 99.48800000 99.48790000 99.48780000 99.48770000 99.48760000 99.48750000 99.48740000 99.48730000 99.48720000 99.48710000 99.48700000 99.48690000 99.48680000 99.48670000 99.48660000 99.48650000 99.48640000 99.48630000 99.48620000 99.48610000 99.48600000 99.48590000 99.48580000 99.48570000 99.48560000 99.48550000 99.48540000 99.48530000 99.48520000 99.48510000 99.48500000 99.48490000 99.48480000 99.48470000 99.48460000 99.48450000 99.48440000 99.48430000 99.48420000 99.48410000 99.48400000 99.48390000 99.48380000 99.48370000 99.48360000 99.48350000 99.48340000 99.48330000 99.48320000 99.48310000 99.48300000 99.48290000 99.48280000 99.48270000 99.48260000 99.48250000 99.48240000 99.48230000 99.48220000 99.48210000 99.48200000 99.48190000 99.48180000 99.48170000 99.48160000 99.48150000 99.48140000 99.48130000 99.48120000 99.48110000 99.48100000 99.48090000 99.48080000 99.48070000 99.48060000 99.48050000 99.48040000 99.48030000 99.48020000 99.48010000 99.48000000 99.47990000 99.47980000 99.47970000 99.47960000 99.47950000 99.47940000 99.47930000 99.47920000 99.47910000 99.47900000 99.47890000 99.47880000 99.47870000 99.47860000 99.47850000 99.47840000 99.47830000 99.47820000 99.47810000 99.47800000 99.47790000 99.47780000 99.47770000 99.47760000 99.47750000 99.47740000 99.47730000 99.47720000 99.47710000 99.47700000 99.47690000 99.47680000 99.47670000 99.47660000 99.47650000 99.47640000 99.47630000 99.47620000 99.47610000 99.47600000 99.47590000 99.47580000 99.47570000 99.47560000 99.47550000 99.47540000 99.47530000 99.47520000 99.47510000 99.47500000 99.47490000 99.47480000 99.47470000 99.47460000 99.47450000 99.47440000 99.47430000 99.47420000 99.47410000 99.47400000 99.47390000 99.47380000 99.47370000 99.47360000 99.47350000 99.47340000 99.47330000 99.47320000 99.47310000 99.47300000 99.47290000 99.47280000 99.47270000 99.47260000 99.47250000 99.47240000 99.47230000 99.47220000 99.47210000 99.47200000 99.47190000 99.47180000 99.47170000 99.47160000 99.47150000 99.47140000 99.47130000 99.47120000 99.47110000 99.47100000 99.47090000 99.47080000 99.47070000 99.47060000 99.47050000 99.47040000 99.47030000 99.47020000 99.47010000 99.47000000 99.46990000 99.46980000 99.46970000 99.46960000 99.46950000 99.46940000 99.46930000 99.46920000 99.46910000 99.46900000 99.46890000 99.46880000 99.46870000 99.46860000 99.46850000 99.46840000 99.46830000 99.46820000 99.46810000 99.46800000 99.46790000 99.46780000 99.46770000 99.46760000 99.46750000 99.46740000 99.46730000 99.46720000 99.46710000 99.46700000 99.46690000 99.46680000 99.46670000 99.46660000 99.46650000 99.46640000 99.46630000 99.46620000 99.46610000 99.46600000 99.46590000 99.46580000 99.46570000 99.46560000 99.46550000 99.46540000 99.46530000 99.46520000 99.46510000 99.46500000 99.46490000 99.46480000 99.46470000 99.46460000 99.46450000 99.46440000 99.46430000 99.46420000 99.46410000 99.46400000 99.46390000 99.46380000 99.46370000 99.46360000 99.46350000 99.46340000 99.46330000 99.46320000 99.46310000 99.46300000 99.46290000 99.46280000 99.46270000 99.46260000 99.46250000 99.46240000 99.46230000 99.46220000 99.46210000 99.46200000 99.46190000 99.46180000 99.46170000 99.46160000 99.46150000 99.46140000 99.46130000 99.46120000 99.46110000 99.46100000 99.46090000 99.46080000 99.46070000 99.46060000 99.46050000 99.46040000 99.46030000 99.46020000 99.46010000 99.46000000 99.45990000 99.45980000 99.45970000 99.45960000 99.45950000 99.45940000 99.45930000 99.45920000 99.45910000 99.45900000 99.45890000 99.45880000 99.45870000 99.45860000 99.45850000 99.45840000 99.45830000 99.45820000 99.45810000 99.45800000 99.45790000 99.45780000 99.45770000 99.45760000 99.45750000 99.45740000 99.45730000 99.45720000 99.45710000 99.45700000 99.45690000 99.45680000 99.45670000 99.45660000 99.45650000 99.45640000 99.45630000 99.45620000 99.45610000 99.45600000 99.45590000 99.45580000 99.45570000 99.45560000 99.45550000 99.45540000 99.45530000 99.45520000 99.45510000 99.45500000 99.45490000 99.45480000 99.45470000 99.45460000 99.45450000 99.45440000 99.45430000 99.45420000 99.45410000 99.45400000 99.45390000 99.45380000 99.45370000 99.45360000 99.45350000 99.45340000 99.45330000 99.45320000 99.45310000 99.45300000 99.45290000 99.45280000 99.45270000 99.45260000 99.45250000 99.45240000 99.45230000 99.45220000 99.45210000 99.45200000 99.45190000 99.45180000 99.45170000 99.45160000 99.45150000 99.45140000 99.45130000 99.45120000 99.45110000 99.45100000 99.45090000 99.45080000 99.45070000 99.45060000 99.45050000 99.45040000 99.45030000 99.45020000 99.45010000 99.45000000 99.44990000 99.44980000 99.44970000 99.44960000 99.44950000 99.44940000 99.44930000 99.44920000 99.44910000 99.44900000 99.44890000 99.44880000 99.44870000 99.44860000 99.44850000 99.44840000 99.44830000 99.44820000 99.44810000 99.44800000 99.44790000 99.44780000 99.44770000 99.44760000 99.44750000 99.44740000 99.44730000 99.44720000 99.44710000 99.44700000 99.44690000 99.44680000 99.44670000 99.44660000 99.44650000 99.44640000 99.44630000 99.44620000 99.44610000 99.44600000 99.44590000 99.44580000 99.44570000 99.44560000 99.44550000 99.44540000 99.44530000 99.44520000 99.44510000 99.44500000 99.44490000 99.44480000 99.44470000 99.44460000 99.44450000 99.44440000 99.44430000 99.44420000 99.44410000 99.44400000 99.44390000 99.44380000 99.44370000 99.44360000 99.44350000 99.44340000 99.44330000 99.44320000 99.44310000 99.44300000 99.44290000 99.44280000 99.44270000 99.44260000 99.44250000 99.44240000 99.44230000 99.44220000 99.44210000 99.44200000 99.44190000 99.44180000 99.44170000 99.44160000 99.44150000 99.44140000 99.44130000 99.44120000 99.44110000 99.44100000 99.44090000 99.44080000 99.44070000 99.44060000 99.44050000 99.44040000 99.44030000 99.44020000 99.44010000 99.44000000 99.43990000 99.43980000 99.43970000 99.43960000 99.43950000 99.43940000 99.43930000 99.43920000 99.43910000 99.43900000 99.43890000 99.43880000 99.43870000 99.43860000 99.43850000 99.43840000 99.43830000 99.43820000 99.43810000 99.43800000 99.43790000 99.43780000 99.43770000 99.43760000 99.43750000 99.43740000 99.43730000 99.43720000 99.43710000 99.43700000 99.43690000 99.43680000 99.43670000 99.43660000 99.43650000 99.43640000 99.43630000 99.43620000 99.43610000 99.43600000 99.43590000 99.43580000 99.43570000 99.43560000 99.43550000 99.43540000 99.43530000 99.43520000 99.43510000
 99.50000000 99.49990000 99.49980000 99.49970000 99.49960000 99.49950000 99.49940000 99.49930000 99.49920000 99.49910000 99.49900000 99.49890000 99.49880000 99.49870000 99.49860000 99.49850000 99.49840000 99.49830000 99.49820000 99.49810000 99.49800000 99.49790000 99.49780000 99.49770000 99.49760000 99.49750000 99.49740000 99.49730000 99.49720000 99.49710000 99.49700000 99.49690000 99.49680000 99.49670000 99.49660000 99.49650000 99.49640000 99.49630000 99.49620000 99.49610000 99.49600000 99.49590000 99.49580000 99.49570000 99.49560000 99.49550000 99.49540000 99.49530000 99.49520000 99.49510000 99.49500000 99.49490000 99.49480000 99.49470000 99.49460000 99.49450000 99.49440000 99.49430000 99.49420000 99.49410000 99.49400000 99.49390000 99.49380000 99.49370000 99.49360000 99.49350000 99.49340000 99.49330000 99.49320000 99.49310000 99.49300000 99.49290000 99.49280000 99.49270000 99.49260000 99.49250000 99.49240000 99.49230000 99.49220000 99.49210000 99.49200000 99.49190000 99.49180000 99.49170000 99.49160000 99.49150000 99.49140000 99.49130000 99.49120000 99.49110000 99.49100000 99.49090000 99.49080000 99.49070000 99.49060000 99.49050000 99.49040000 99.49030000 99.49020000 99.49010000 99.49000000 99.48990000 99.48980000 99.48970000 99.48960000 99.48950000 99.48940000 99.48930000 99.48920000 99.48910000 99.48900000 99.48890000 99.48880000 99.48870000 99.48860000 99.48850000 99.48840000 99.48830000 99.48820000 99.48810000 99.48800000 99.48790000 99.48780000 99.48770000 99.48760000 99.48750000 99.48740000 99.48730000 99.48720000 99.48710000 99.48700000 99.48690000 99.48680000 99.48670000 99.48660000 99.48650000 99.48640000 99.48630000 99.48620000 99.48610000 99.48600000 99.48590000 99.48580000 99.48570000 99.48560000 99.48550000 99.48540000 99.48530000 99.48520000 99.48510000 99.48500000 99.48490000 99.48480000 99.48470000 99.48460000 99.48450000 99.48440000 99.48430000 99.48420000 99.48410000 99.48400000 99.48390000 99.48380000 99.48370000 99.48360000 99.48350000 99.48340000 99.48330000 99.48320000 99.48310000 99.48300000 99.48290000 99.48280000 99.48270000 99.48260000 99.48250000 99.48240000 99.48230000 99.48220000 99.48210000 99.48200000 99.48190000 99.48180000 99.48170000 99.48160000 99.48150000 99.48140000 99.48130000 99.48120000 99.48110000 99.48100000 99.48090000 99.48080000 99.48070000 99.48060000 99.48050000 99.48040000 99.48030000 99.48020000 99.48010000 99.48000000 99.47990000 99.47980000 99.47970000 99.47960000 99.47950000 99.47940000 99.47930000 99.47920000 99.47910000 99.47900000 99.47890000 99.47880000 99.47870000 99.47860000 99.47850000 99.47840000 99.47830000 99.47820000 99.47810000 99.47800000 99.47790000 99.47780000 99.47770000 99.47760000 99.47750000 99.47740000 99.47730000 99.47720000 99.47710000 99.47700000 99.47690000 99.47680000 99.47670000 99.47660000 99.47650000 99.47640000 99.47630000 99.47620000 99.47610000 99.47600000 99.47590000 99.47580000 99.47570000 99.47560000 99.47550000 99.47540000 99.47530000 99.47520000 99.47510000 99.47500000 99.47490000 99.47480000 99.47470000 99.47460000 99.47450000 99.47440000 99.47430000 99.47420000 99.47410000 99.47400000 99.47390000 99.47380000 99.47370000 99.47360000 99.47350000 99.47340000 99.47330000 99.47320000 99.47310000 99.47300000 99.47290000 99.47280000 99.47270000 99.47260000 99.47250000 99.47240000 99.47230000 99.47220000 99.47210000 99.47200000 99.47190000 99.47180000 99.47170000 99.47160000 99.47150000 99.47140000 99.47130000 99.47120000 99.47110000 99.47100000 99.47090000 99.47080000 99.47070000 99.47060000 99.47050000 99.47040000 99.47030000 99.47020000 99.47010000 99.47000000 99.46990000 99.46980000 99.46970000 99.46960000 99.46950000 99.46940000 99.46930000 99.46920000 99.46910000 99.46900000 99.46890000 99.46880000 99.46870000 99.46860000 99.46850000 99.46840000 99.46830000 99.46820000 99.46810000 99.46800000 99.46790000 99.46780000 99.46770000 99.46760000 99.46750000 99.46740000 99.46730000 99.46720000 99.46710000 99.46700000 99.46690000 99.46680000 99.46670000 99.46660000 99.46650000 99.46640000 99.46630000 99.46620000 99.46610000 99.46600000 99.46590000 99.46580000 99.46570000 99.46560000 99.46550000 99.46540000 99.46530000 99.46520000 99.46510000 99.46500000 99.46490000 99.46480000 99.46470000 99.46460000 99.46450000 99.46440000 99.46430000 99.46420000 99.46410000 99.46400000 99.46390000 99.46380000 99.46370000 99.46360000 99.46350000 99.46340000 99.46330000 99.46320000 99.46310000 99.46300000 99.46290000 99.46280000 99.46270000 99.46260000 99.46250000 99.46240000 99.46230000 99.46220000 99.46210000 99.46200000 99.46190000 99.46180000 99.46170000 99.46160000 99.46150000 99.46140000 99.46130000 99.46120000 99.46110000 99.46100000 99.46090000 99.46080000 99.46070000 99.46060000 99.46050000 99.46040000 99.46030000 99.46020000 99.46010000 99.46000000 99.45990000 99.45980000 99.45970000 99.45960000 99.45950000 99.45940000 99.45930000 99.45920000 99.45910000 99.45900000 99.45890000 99.45880000 99.45870000 99.45860000 99.45850000 99.45840000 99.45830000 99.45820000 99.45810000 99.45800000 99.45790000 99.45780000 99.45770000 99.45760000 99.45750000 99.45740000 99.45730000 99.45720000 99.45710000 99.45700000 99.45690000 99.45680000 99.45670000 99.45660000 99.45650000 99.45640000 99.45630000 99.45620000 99.45610000 99.45600000 99.45590000 99.45580000 99.45570000 99.45560000 99.45550000 99.45540000 99.45530000 99.45520000 99.45510000 99.45500000 99.45490000 99.45480000 99.45470000 99.45460000 99.45450000 99.45440000 99.45430000 99.45420000 99.45410000 99.45400000 99.45390000 99.45380000 99.45370000 99.45360000 99.45350000 99.45340000 99.45330000 99.45320000 99.45310000 99.45300000 99.45290000 99.45280000 99.45270000 99.45260000 99.45250000 99.45240000 99.45230000 99.45220000 99.45210000 99.45200000 99.45190000 99.45180000 99.45170000 99.45160000 99.45150000 99.45140000 99.45130000 99.45120000 99.45110000 99.45100000 99.45090000 99.45080000 99.45070000 99.45060000 99.45050000 99.45040000 99.45030000 99.45020000 99.45010000 99.45000000 99.44990000 99.44980000 99.44970000 99.44960000 99.44950000 99.44940000 99.44930000 99.44920000 99.44910000 99.44900000 99.44890000 99.44880000 99.44870000 99.44860000 99.44850000 99.44840000 99.44830000 99.44820000 99.44810000 99.44800000 99.44790000 99.44780000 99.44770000 99.44760000 99.44750000 99.44740000 99.44730000 99.44720000 99.44710000 99.44700000 99.44690000 99.44680000 99.44670000 99.44660000 99.44650000 99.44640000 99.44630000 99.44620000 99.44610000 99.44600000 99.44590000 99.44580000 99.44570000 99.44560000 99.44550000 99.44540000 99.44530000 99.44520000 99.44510000 99.44500000 99.44490000 99.44480000 99.44470000 99.44460000 99.44450000 99.44440000 99.44430000 99.44420000 99.44410000 99.44400000 99.44390000 99.44380000 99.44370000 99.44360000 99.44350000 99.44340000 99.44330000 99.44320000 99.44310000 99.44300000 99.44290000 99.44280000 99.44270000 99.44260000 99.44250000 99.44240000 99.44230000 99.44220000 99.44210000 99.44200000 99.44190000 99.44180000 99.44170000 99.44160000 99.44150000 99.44140000 99.44130000 99.44120000 99.44110000 99.44100000 99.44090000 99.44080000 99.44070000 99.44060000 99.44050000 99.44040000 99.44030000 99.44020000 99.44010000 99.44000000 99.43990000 99.43980000 99.43970000 99.43960000 99.43950000 99.43940000 99.43930000 99.43920000 99.43910000 99.43900000 99.43890000 99.43880000 99.43870000 99.43860000 99.43850000 99.43840000 99.43830000 99.43820000 99.43810000 99.43800000 99.43790000 99.43780000 99.43770000 99.43760000 99.43750000 99.43740000 99.43730000 99.43720000 99.43710000 99.43700000 99.43690000 99.43680000 99.43670000 99.43660000 99.43650000 99.43640000 99.43630000 99.43620000 99.43610000 99.43600000 99.43590000 99.43580000 99.43570000 99.43560000 99.43550000 99.43540000 99.43530000 99.43520000 99.43510000

