# Name file for MT3D-USGS, generated by Flopy version 3.2.6.
LIST               2  CrnkNic.list
FTL               39  CrnkNic.ftl  FREE
BTN               31  CrnkNic.btn 
ADV               32  CrnkNic.adv 
GCG               35  CrnkNic.gcg 
SSM               34  CrnkNic.ssm 
SFT               19  CrnkNic.sft 
DATA              82  CrnkNic.sftobs
