# UPW package for  MODFLOW-NWT, generated by Flopy.
        53      -888         0         0 
         1
         2
         1
         1
         0
CONSTANT    1.000000E-01                           #hk layer 1                    
CONSTANT    1.000000E+00                           #vani layer 1                  
CONSTANT    1.000000E-06                           #ss layer 1                    
CONSTANT    2.000000E-01                           #sy layer 1                    
