# LMT6 package for  MODFLOW-NWT, generated by Flopy.
OUTPUT_FILE_NAME CrnkNic.ftl
OUTPUT_FILE_UNIT         54
OUTPUT_FILE_HEADER extended
OUTPUT_FILE_FORMAT formatted
PACKAGE_FLOWS SFR 
