# OC package for  MODFLOW-NWT, generated by Flopy.
HEAD PRINT FORMAT   0
HEAD SAVE UNIT    51
DRAWDOWN PRINT FORMAT   0
COMPACT BUDGET AUX

period 1 step 1 
save head

period 2 step 1 
save head

period 3 step 1 
save head

