# DIS package for  MODFLOW-NWT, generated by Flopy. 
#     NLAY      NROW      NCOL      NPER    ITMUNI    LENUNI (ITMUNI=1: seconds, LENUNI=2: meters)
         1         3       650         3         1         2
  0
CONSTANT    1.000000E+00                           #delr                          
CONSTANT    5.000000E+00                           #delc                          
INTERNAL               1 (650E15.6) -1 #model_top                     
   1.000000E+02   9.997000E+01   9.994000E+01   9.991000E+01   9.988000E+01   9.985000E+01   9.982000E+01   9.979000E+01   9.976000E+01   9.973000E+01   9.970000E+01   9.967000E+01   9.964000E+01   9.961000E+01   9.958000E+01   9.955000E+01   9.952000E+01   9.949000E+01   9.946000E+01   9.943000E+01   9.940000E+01   9.937000E+01   9.934000E+01   9.931000E+01   9.928000E+01   9.925000E+01   9.922000E+01   9.919000E+01   9.916000E+01   9.913000E+01   9.910000E+01   9.907000E+01   9.904000E+01   9.901000E+01   9.898000E+01   9.895000E+01   9.892000E+01   9.889000E+01   9.886000E+01   9.883000E+01   9.880000E+01   9.877000E+01   9.874000E+01   9.871000E+01   9.868000E+01   9.865000E+01   9.862000E+01   9.859000E+01   9.856000E+01   9.853000E+01   9.850000E+01   9.847000E+01   9.844000E+01   9.841000E+01   9.838000E+01   9.835000E+01   9.832000E+01   9.829000E+01   9.826000E+01   9.823000E+01   9.820000E+01   9.817000E+01   9.814000E+01   9.811000E+01   9.808000E+01   9.805000E+01   9.802000E+01   9.799000E+01   9.796000E+01   9.793000E+01   9.790000E+01   9.787000E+01   9.784000E+01   9.781000E+01   9.778000E+01   9.775000E+01   9.772000E+01   9.769000E+01   9.766000E+01   9.763000E+01   9.760000E+01   9.757000E+01   9.754000E+01   9.751000E+01   9.748000E+01   9.745000E+01   9.742000E+01   9.739000E+01   9.736000E+01   9.733000E+01   9.730000E+01   9.727000E+01   9.724000E+01   9.721000E+01   9.718000E+01   9.715000E+01   9.712000E+01   9.709000E+01   9.706000E+01   9.703000E+01   9.700000E+01   9.697000E+01   9.694000E+01   9.691000E+01   9.688000E+01   9.685000E+01   9.682000E+01   9.679000E+01   9.676000E+01   9.673000E+01   9.670000E+01   9.667000E+01   9.664000E+01   9.661000E+01   9.658000E+01   9.655000E+01   9.652000E+01   9.649000E+01   9.646000E+01   9.643000E+01   9.640000E+01   9.637000E+01   9.634000E+01   9.631000E+01   9.628000E+01   9.625000E+01   9.622000E+01   9.619000E+01   9.616000E+01   9.613000E+01   9.610000E+01   9.607000E+01   9.604000E+01   9.601000E+01   9.598000E+01   9.595000E+01   9.592000E+01   9.589000E+01   9.586000E+01   9.583000E+01   9.580000E+01   9.577000E+01   9.574000E+01   9.571000E+01   9.568000E+01   9.565000E+01   9.562000E+01   9.559000E+01   9.556000E+01   9.553000E+01   9.550000E+01   9.547000E+01   9.544000E+01   9.541000E+01   9.538000E+01   9.535000E+01   9.532000E+01   9.529000E+01   9.526000E+01   9.523000E+01   9.520000E+01   9.517000E+01   9.514000E+01   9.511000E+01   9.508000E+01   9.505000E+01   9.502000E+01   9.499000E+01   9.496000E+01   9.493000E+01   9.490000E+01   9.487000E+01   9.484000E+01   9.481000E+01   9.478000E+01   9.475000E+01   9.472000E+01   9.469000E+01   9.466000E+01   9.463000E+01   9.460000E+01   9.457000E+01   9.454000E+01   9.451000E+01   9.448000E+01   9.445000E+01   9.442000E+01   9.439000E+01   9.436000E+01   9.433000E+01   9.430000E+01   9.427000E+01   9.424000E+01   9.421000E+01   9.418000E+01   9.415000E+01   9.412000E+01   9.409000E+01   9.406000E+01   9.403000E+01   9.400000E+01   9.397000E+01   9.394000E+01   9.391000E+01   9.388000E+01   9.385000E+01   9.382000E+01   9.379000E+01   9.376000E+01   9.373000E+01   9.370000E+01   9.367000E+01   9.364000E+01   9.361000E+01   9.358000E+01   9.355000E+01   9.352000E+01   9.349000E+01   9.346000E+01   9.343000E+01   9.340000E+01   9.337000E+01   9.334000E+01   9.331000E+01   9.328000E+01   9.325000E+01   9.322000E+01   9.319000E+01   9.316000E+01   9.313000E+01   9.310000E+01   9.307000E+01   9.304000E+01   9.301000E+01   9.298000E+01   9.295000E+01   9.292000E+01   9.289000E+01   9.286000E+01   9.283000E+01   9.280000E+01   9.277000E+01   9.274000E+01   9.271000E+01   9.268000E+01   9.265000E+01   9.262000E+01   9.259000E+01   9.256000E+01   9.253000E+01   9.250000E+01   9.247000E+01   9.244000E+01   9.241000E+01   9.238000E+01   9.235000E+01   9.232000E+01   9.229000E+01   9.226000E+01   9.223000E+01   9.220000E+01   9.217000E+01   9.214000E+01   9.211000E+01   9.208000E+01   9.205000E+01   9.202000E+01   9.199000E+01   9.196000E+01   9.193000E+01   9.190000E+01   9.187000E+01   9.184000E+01   9.181000E+01   9.178000E+01   9.175000E+01   9.172000E+01   9.169000E+01   9.166000E+01   9.163000E+01   9.160000E+01   9.157000E+01   9.154000E+01   9.151000E+01   9.148000E+01   9.145000E+01   9.142000E+01   9.139000E+01   9.136000E+01   9.133000E+01   9.130000E+01   9.127000E+01   9.124000E+01   9.121000E+01   9.118000E+01   9.115000E+01   9.112000E+01   9.109000E+01   9.106000E+01   9.103000E+01   9.100000E+01   9.097000E+01   9.094000E+01   9.091000E+01   9.088000E+01   9.085000E+01   9.082000E+01   9.079000E+01   9.076000E+01   9.073000E+01   9.070000E+01   9.067000E+01   9.064000E+01   9.061000E+01   9.058000E+01   9.055000E+01   9.052000E+01   9.049000E+01   9.046000E+01   9.043000E+01   9.040000E+01   9.037000E+01   9.034000E+01   9.031000E+01   9.028000E+01   9.025000E+01   9.022000E+01   9.019000E+01   9.016000E+01   9.013000E+01   9.010000E+01   9.007000E+01   9.004000E+01   9.001000E+01   8.998000E+01   8.995000E+01   8.992000E+01   8.989000E+01   8.986000E+01   8.983000E+01   8.980000E+01   8.977000E+01   8.974000E+01   8.971000E+01   8.968000E+01   8.965000E+01   8.962000E+01   8.959000E+01   8.956000E+01   8.953000E+01   8.950000E+01   8.947000E+01   8.944000E+01   8.941000E+01   8.938000E+01   8.935000E+01   8.932000E+01   8.929000E+01   8.926000E+01   8.923000E+01   8.920000E+01   8.917000E+01   8.914000E+01   8.911000E+01   8.908000E+01   8.905000E+01   8.902000E+01   8.899000E+01   8.896000E+01   8.893000E+01   8.890000E+01   8.887000E+01   8.884000E+01   8.881000E+01   8.878000E+01   8.875000E+01   8.872000E+01   8.869000E+01   8.866000E+01   8.863000E+01   8.860000E+01   8.857000E+01   8.854000E+01   8.851000E+01   8.848000E+01   8.845000E+01   8.842000E+01   8.839000E+01   8.836000E+01   8.833000E+01   8.830000E+01   8.827000E+01   8.824000E+01   8.821000E+01   8.818000E+01   8.815000E+01   8.812000E+01   8.809000E+01   8.806000E+01   8.803000E+01   8.800000E+01   8.797000E+01   8.794000E+01   8.791000E+01   8.788000E+01   8.785000E+01   8.782000E+01   8.779000E+01   8.776000E+01   8.773000E+01   8.770000E+01   8.767000E+01   8.764000E+01   8.761000E+01   8.758000E+01   8.755000E+01   8.752000E+01   8.749000E+01   8.746000E+01   8.743000E+01   8.740000E+01   8.737000E+01   8.734000E+01   8.731000E+01   8.728000E+01   8.725000E+01   8.722000E+01   8.719000E+01   8.716000E+01   8.713000E+01   8.710000E+01   8.707000E+01   8.704000E+01   8.701000E+01   8.698000E+01   8.695000E+01   8.692000E+01   8.689000E+01   8.686000E+01   8.683000E+01   8.680000E+01   8.677000E+01   8.674000E+01   8.671000E+01   8.668000E+01   8.665000E+01   8.662000E+01   8.659000E+01   8.656000E+01   8.653000E+01   8.650000E+01   8.647000E+01   8.644000E+01   8.641000E+01   8.638000E+01   8.635000E+01   8.632000E+01   8.629000E+01   8.626000E+01   8.623000E+01   8.620000E+01   8.617000E+01   8.614000E+01   8.611000E+01   8.608000E+01   8.605000E+01   8.602000E+01   8.599000E+01   8.596000E+01   8.593000E+01   8.590000E+01   8.587000E+01   8.584000E+01   8.581000E+01   8.578000E+01   8.575000E+01   8.572000E+01   8.569000E+01   8.566000E+01   8.563000E+01   8.560000E+01   8.557000E+01   8.554000E+01   8.551000E+01   8.548000E+01   8.545000E+01   8.542000E+01   8.539000E+01   8.536000E+01   8.533000E+01   8.530000E+01   8.527000E+01   8.524000E+01   8.521000E+01   8.518000E+01   8.515000E+01   8.512000E+01   8.509000E+01   8.506000E+01   8.503000E+01   8.500000E+01   8.497000E+01   8.494000E+01   8.491000E+01   8.488000E+01   8.485000E+01   8.482000E+01   8.479000E+01   8.476000E+01   8.473000E+01   8.470000E+01   8.467000E+01   8.464000E+01   8.461000E+01   8.458000E+01   8.455000E+01   8.452000E+01   8.449000E+01   8.446000E+01   8.443000E+01   8.440000E+01   8.437000E+01   8.434000E+01   8.431000E+01   8.428000E+01   8.425000E+01   8.422000E+01   8.419000E+01   8.416000E+01   8.413000E+01   8.410000E+01   8.407000E+01   8.404000E+01   8.401000E+01   8.398000E+01   8.395000E+01   8.392000E+01   8.389000E+01   8.386000E+01   8.383000E+01   8.380000E+01   8.377000E+01   8.374000E+01   8.371000E+01   8.368000E+01   8.365000E+01   8.362000E+01   8.359000E+01   8.356000E+01   8.353000E+01   8.350000E+01   8.347000E+01   8.344000E+01   8.341000E+01   8.338000E+01   8.335000E+01   8.332000E+01   8.329000E+01   8.326000E+01   8.323000E+01   8.320000E+01   8.317000E+01   8.314000E+01   8.311000E+01   8.308000E+01   8.305000E+01   8.302000E+01   8.299000E+01   8.296000E+01   8.293000E+01   8.290000E+01   8.287000E+01   8.284000E+01   8.281000E+01   8.278000E+01   8.275000E+01   8.272000E+01   8.269000E+01   8.266000E+01   8.263000E+01   8.260000E+01   8.257000E+01   8.254000E+01   8.251000E+01   8.248000E+01   8.245000E+01   8.242000E+01   8.239000E+01   8.236000E+01   8.233000E+01   8.230000E+01   8.227000E+01   8.224000E+01   8.221000E+01   8.218000E+01   8.215000E+01   8.212000E+01   8.209000E+01   8.206000E+01   8.203000E+01   8.200000E+01   8.197000E+01   8.194000E+01   8.191000E+01   8.188000E+01   8.185000E+01   8.182000E+01   8.179000E+01   8.176000E+01   8.173000E+01   8.170000E+01   8.167000E+01   8.164000E+01   8.161000E+01   8.158000E+01   8.155000E+01   8.152000E+01   8.149000E+01   8.146000E+01   8.143000E+01   8.140000E+01   8.137000E+01   8.134000E+01   8.131000E+01   8.128000E+01   8.125000E+01   8.122000E+01   8.119000E+01   8.116000E+01   8.113000E+01   8.110000E+01   8.107000E+01   8.104000E+01   8.101000E+01   8.098000E+01   8.095000E+01   8.092000E+01   8.089000E+01   8.086000E+01   8.083000E+01   8.080000E+01   8.077000E+01   8.074000E+01   8.071000E+01   8.068000E+01   8.065000E+01   8.062000E+01   8.059000E+01   8.056000E+01   8.053000E+01
   1.000000E+02   9.997000E+01   9.994000E+01   9.991000E+01   9.988000E+01   9.985000E+01   9.982000E+01   9.979000E+01   9.976000E+01   9.973000E+01   9.970000E+01   9.967000E+01   9.964000E+01   9.961000E+01   9.958000E+01   9.955000E+01   9.952000E+01   9.949000E+01   9.946000E+01   9.943000E+01   9.940000E+01   9.937000E+01   9.934000E+01   9.931000E+01   9.928000E+01   9.925000E+01   9.922000E+01   9.919000E+01   9.916000E+01   9.913000E+01   9.910000E+01   9.907000E+01   9.904000E+01   9.901000E+01   9.898000E+01   9.895000E+01   9.892000E+01   9.889000E+01   9.886000E+01   9.883000E+01   9.880000E+01   9.877000E+01   9.874000E+01   9.871000E+01   9.868000E+01   9.865000E+01   9.862000E+01   9.859000E+01   9.856000E+01   9.853000E+01   9.850000E+01   9.847000E+01   9.844000E+01   9.841000E+01   9.838000E+01   9.835000E+01   9.832000E+01   9.829000E+01   9.826000E+01   9.823000E+01   9.820000E+01   9.817000E+01   9.814000E+01   9.811000E+01   9.808000E+01   9.805000E+01   9.802000E+01   9.799000E+01   9.796000E+01   9.793000E+01   9.790000E+01   9.787000E+01   9.784000E+01   9.781000E+01   9.778000E+01   9.775000E+01   9.772000E+01   9.769000E+01   9.766000E+01   9.763000E+01   9.760000E+01   9.757000E+01   9.754000E+01   9.751000E+01   9.748000E+01   9.745000E+01   9.742000E+01   9.739000E+01   9.736000E+01   9.733000E+01   9.730000E+01   9.727000E+01   9.724000E+01   9.721000E+01   9.718000E+01   9.715000E+01   9.712000E+01   9.709000E+01   9.706000E+01   9.703000E+01   9.700000E+01   9.697000E+01   9.694000E+01   9.691000E+01   9.688000E+01   9.685000E+01   9.682000E+01   9.679000E+01   9.676000E+01   9.673000E+01   9.670000E+01   9.667000E+01   9.664000E+01   9.661000E+01   9.658000E+01   9.655000E+01   9.652000E+01   9.649000E+01   9.646000E+01   9.643000E+01   9.640000E+01   9.637000E+01   9.634000E+01   9.631000E+01   9.628000E+01   9.625000E+01   9.622000E+01   9.619000E+01   9.616000E+01   9.613000E+01   9.610000E+01   9.607000E+01   9.604000E+01   9.601000E+01   9.598000E+01   9.595000E+01   9.592000E+01   9.589000E+01   9.586000E+01   9.583000E+01   9.580000E+01   9.577000E+01   9.574000E+01   9.571000E+01   9.568000E+01   9.565000E+01   9.562000E+01   9.559000E+01   9.556000E+01   9.553000E+01   9.550000E+01   9.547000E+01   9.544000E+01   9.541000E+01   9.538000E+01   9.535000E+01   9.532000E+01   9.529000E+01   9.526000E+01   9.523000E+01   9.520000E+01   9.517000E+01   9.514000E+01   9.511000E+01   9.508000E+01   9.505000E+01   9.502000E+01   9.499000E+01   9.496000E+01   9.493000E+01   9.490000E+01   9.487000E+01   9.484000E+01   9.481000E+01   9.478000E+01   9.475000E+01   9.472000E+01   9.469000E+01   9.466000E+01   9.463000E+01   9.460000E+01   9.457000E+01   9.454000E+01   9.451000E+01   9.448000E+01   9.445000E+01   9.442000E+01   9.439000E+01   9.436000E+01   9.433000E+01   9.430000E+01   9.427000E+01   9.424000E+01   9.421000E+01   9.418000E+01   9.415000E+01   9.412000E+01   9.409000E+01   9.406000E+01   9.403000E+01   9.400000E+01   9.397000E+01   9.394000E+01   9.391000E+01   9.388000E+01   9.385000E+01   9.382000E+01   9.379000E+01   9.376000E+01   9.373000E+01   9.370000E+01   9.367000E+01   9.364000E+01   9.361000E+01   9.358000E+01   9.355000E+01   9.352000E+01   9.349000E+01   9.346000E+01   9.343000E+01   9.340000E+01   9.337000E+01   9.334000E+01   9.331000E+01   9.328000E+01   9.325000E+01   9.322000E+01   9.319000E+01   9.316000E+01   9.313000E+01   9.310000E+01   9.307000E+01   9.304000E+01   9.301000E+01   9.298000E+01   9.295000E+01   9.292000E+01   9.289000E+01   9.286000E+01   9.283000E+01   9.280000E+01   9.277000E+01   9.274000E+01   9.271000E+01   9.268000E+01   9.265000E+01   9.262000E+01   9.259000E+01   9.256000E+01   9.253000E+01   9.250000E+01   9.247000E+01   9.244000E+01   9.241000E+01   9.238000E+01   9.235000E+01   9.232000E+01   9.229000E+01   9.226000E+01   9.223000E+01   9.220000E+01   9.217000E+01   9.214000E+01   9.211000E+01   9.208000E+01   9.205000E+01   9.202000E+01   9.199000E+01   9.196000E+01   9.193000E+01   9.190000E+01   9.187000E+01   9.184000E+01   9.181000E+01   9.178000E+01   9.175000E+01   9.172000E+01   9.169000E+01   9.166000E+01   9.163000E+01   9.160000E+01   9.157000E+01   9.154000E+01   9.151000E+01   9.148000E+01   9.145000E+01   9.142000E+01   9.139000E+01   9.136000E+01   9.133000E+01   9.130000E+01   9.127000E+01   9.124000E+01   9.121000E+01   9.118000E+01   9.115000E+01   9.112000E+01   9.109000E+01   9.106000E+01   9.103000E+01   9.100000E+01   9.097000E+01   9.094000E+01   9.091000E+01   9.088000E+01   9.085000E+01   9.082000E+01   9.079000E+01   9.076000E+01   9.073000E+01   9.070000E+01   9.067000E+01   9.064000E+01   9.061000E+01   9.058000E+01   9.055000E+01   9.052000E+01   9.049000E+01   9.046000E+01   9.043000E+01   9.040000E+01   9.037000E+01   9.034000E+01   9.031000E+01   9.028000E+01   9.025000E+01   9.022000E+01   9.019000E+01   9.016000E+01   9.013000E+01   9.010000E+01   9.007000E+01   9.004000E+01   9.001000E+01   8.998000E+01   8.995000E+01   8.992000E+01   8.989000E+01   8.986000E+01   8.983000E+01   8.980000E+01   8.977000E+01   8.974000E+01   8.971000E+01   8.968000E+01   8.965000E+01   8.962000E+01   8.959000E+01   8.956000E+01   8.953000E+01   8.950000E+01   8.947000E+01   8.944000E+01   8.941000E+01   8.938000E+01   8.935000E+01   8.932000E+01   8.929000E+01   8.926000E+01   8.923000E+01   8.920000E+01   8.917000E+01   8.914000E+01   8.911000E+01   8.908000E+01   8.905000E+01   8.902000E+01   8.899000E+01   8.896000E+01   8.893000E+01   8.890000E+01   8.887000E+01   8.884000E+01   8.881000E+01   8.878000E+01   8.875000E+01   8.872000E+01   8.869000E+01   8.866000E+01   8.863000E+01   8.860000E+01   8.857000E+01   8.854000E+01   8.851000E+01   8.848000E+01   8.845000E+01   8.842000E+01   8.839000E+01   8.836000E+01   8.833000E+01   8.830000E+01   8.827000E+01   8.824000E+01   8.821000E+01   8.818000E+01   8.815000E+01   8.812000E+01   8.809000E+01   8.806000E+01   8.803000E+01   8.800000E+01   8.797000E+01   8.794000E+01   8.791000E+01   8.788000E+01   8.785000E+01   8.782000E+01   8.779000E+01   8.776000E+01   8.773000E+01   8.770000E+01   8.767000E+01   8.764000E+01   8.761000E+01   8.758000E+01   8.755000E+01   8.752000E+01   8.749000E+01   8.746000E+01   8.743000E+01   8.740000E+01   8.737000E+01   8.734000E+01   8.731000E+01   8.728000E+01   8.725000E+01   8.722000E+01   8.719000E+01   8.716000E+01   8.713000E+01   8.710000E+01   8.707000E+01   8.704000E+01   8.701000E+01   8.698000E+01   8.695000E+01   8.692000E+01   8.689000E+01   8.686000E+01   8.683000E+01   8.680000E+01   8.677000E+01   8.674000E+01   8.671000E+01   8.668000E+01   8.665000E+01   8.662000E+01   8.659000E+01   8.656000E+01   8.653000E+01   8.650000E+01   8.647000E+01   8.644000E+01   8.641000E+01   8.638000E+01   8.635000E+01   8.632000E+01   8.629000E+01   8.626000E+01   8.623000E+01   8.620000E+01   8.617000E+01   8.614000E+01   8.611000E+01   8.608000E+01   8.605000E+01   8.602000E+01   8.599000E+01   8.596000E+01   8.593000E+01   8.590000E+01   8.587000E+01   8.584000E+01   8.581000E+01   8.578000E+01   8.575000E+01   8.572000E+01   8.569000E+01   8.566000E+01   8.563000E+01   8.560000E+01   8.557000E+01   8.554000E+01   8.551000E+01   8.548000E+01   8.545000E+01   8.542000E+01   8.539000E+01   8.536000E+01   8.533000E+01   8.530000E+01   8.527000E+01   8.524000E+01   8.521000E+01   8.518000E+01   8.515000E+01   8.512000E+01   8.509000E+01   8.506000E+01   8.503000E+01   8.500000E+01   8.497000E+01   8.494000E+01   8.491000E+01   8.488000E+01   8.485000E+01   8.482000E+01   8.479000E+01   8.476000E+01   8.473000E+01   8.470000E+01   8.467000E+01   8.464000E+01   8.461000E+01   8.458000E+01   8.455000E+01   8.452000E+01   8.449000E+01   8.446000E+01   8.443000E+01   8.440000E+01   8.437000E+01   8.434000E+01   8.431000E+01   8.428000E+01   8.425000E+01   8.422000E+01   8.419000E+01   8.416000E+01   8.413000E+01   8.410000E+01   8.407000E+01   8.404000E+01   8.401000E+01   8.398000E+01   8.395000E+01   8.392000E+01   8.389000E+01   8.386000E+01   8.383000E+01   8.380000E+01   8.377000E+01   8.374000E+01   8.371000E+01   8.368000E+01   8.365000E+01   8.362000E+01   8.359000E+01   8.356000E+01   8.353000E+01   8.350000E+01   8.347000E+01   8.344000E+01   8.341000E+01   8.338000E+01   8.335000E+01   8.332000E+01   8.329000E+01   8.326000E+01   8.323000E+01   8.320000E+01   8.317000E+01   8.314000E+01   8.311000E+01   8.308000E+01   8.305000E+01   8.302000E+01   8.299000E+01   8.296000E+01   8.293000E+01   8.290000E+01   8.287000E+01   8.284000E+01   8.281000E+01   8.278000E+01   8.275000E+01   8.272000E+01   8.269000E+01   8.266000E+01   8.263000E+01   8.260000E+01   8.257000E+01   8.254000E+01   8.251000E+01   8.248000E+01   8.245000E+01   8.242000E+01   8.239000E+01   8.236000E+01   8.233000E+01   8.230000E+01   8.227000E+01   8.224000E+01   8.221000E+01   8.218000E+01   8.215000E+01   8.212000E+01   8.209000E+01   8.206000E+01   8.203000E+01   8.200000E+01   8.197000E+01   8.194000E+01   8.191000E+01   8.188000E+01   8.185000E+01   8.182000E+01   8.179000E+01   8.176000E+01   8.173000E+01   8.170000E+01   8.167000E+01   8.164000E+01   8.161000E+01   8.158000E+01   8.155000E+01   8.152000E+01   8.149000E+01   8.146000E+01   8.143000E+01   8.140000E+01   8.137000E+01   8.134000E+01   8.131000E+01   8.128000E+01   8.125000E+01   8.122000E+01   8.119000E+01   8.116000E+01   8.113000E+01   8.110000E+01   8.107000E+01   8.104000E+01   8.101000E+01   8.098000E+01   8.095000E+01   8.092000E+01   8.089000E+01   8.086000E+01   8.083000E+01   8.080000E+01   8.077000E+01   8.074000E+01   8.071000E+01   8.068000E+01   8.065000E+01   8.062000E+01   8.059000E+01   8.056000E+01   8.053000E+01
   1.000000E+02   9.997000E+01   9.994000E+01   9.991000E+01   9.988000E+01   9.985000E+01   9.982000E+01   9.979000E+01   9.976000E+01   9.973000E+01   9.970000E+01   9.967000E+01   9.964000E+01   9.961000E+01   9.958000E+01   9.955000E+01   9.952000E+01   9.949000E+01   9.946000E+01   9.943000E+01   9.940000E+01   9.937000E+01   9.934000E+01   9.931000E+01   9.928000E+01   9.925000E+01   9.922000E+01   9.919000E+01   9.916000E+01   9.913000E+01   9.910000E+01   9.907000E+01   9.904000E+01   9.901000E+01   9.898000E+01   9.895000E+01   9.892000E+01   9.889000E+01   9.886000E+01   9.883000E+01   9.880000E+01   9.877000E+01   9.874000E+01   9.871000E+01   9.868000E+01   9.865000E+01   9.862000E+01   9.859000E+01   9.856000E+01   9.853000E+01   9.850000E+01   9.847000E+01   9.844000E+01   9.841000E+01   9.838000E+01   9.835000E+01   9.832000E+01   9.829000E+01   9.826000E+01   9.823000E+01   9.820000E+01   9.817000E+01   9.814000E+01   9.811000E+01   9.808000E+01   9.805000E+01   9.802000E+01   9.799000E+01   9.796000E+01   9.793000E+01   9.790000E+01   9.787000E+01   9.784000E+01   9.781000E+01   9.778000E+01   9.775000E+01   9.772000E+01   9.769000E+01   9.766000E+01   9.763000E+01   9.760000E+01   9.757000E+01   9.754000E+01   9.751000E+01   9.748000E+01   9.745000E+01   9.742000E+01   9.739000E+01   9.736000E+01   9.733000E+01   9.730000E+01   9.727000E+01   9.724000E+01   9.721000E+01   9.718000E+01   9.715000E+01   9.712000E+01   9.709000E+01   9.706000E+01   9.703000E+01   9.700000E+01   9.697000E+01   9.694000E+01   9.691000E+01   9.688000E+01   9.685000E+01   9.682000E+01   9.679000E+01   9.676000E+01   9.673000E+01   9.670000E+01   9.667000E+01   9.664000E+01   9.661000E+01   9.658000E+01   9.655000E+01   9.652000E+01   9.649000E+01   9.646000E+01   9.643000E+01   9.640000E+01   9.637000E+01   9.634000E+01   9.631000E+01   9.628000E+01   9.625000E+01   9.622000E+01   9.619000E+01   9.616000E+01   9.613000E+01   9.610000E+01   9.607000E+01   9.604000E+01   9.601000E+01   9.598000E+01   9.595000E+01   9.592000E+01   9.589000E+01   9.586000E+01   9.583000E+01   9.580000E+01   9.577000E+01   9.574000E+01   9.571000E+01   9.568000E+01   9.565000E+01   9.562000E+01   9.559000E+01   9.556000E+01   9.553000E+01   9.550000E+01   9.547000E+01   9.544000E+01   9.541000E+01   9.538000E+01   9.535000E+01   9.532000E+01   9.529000E+01   9.526000E+01   9.523000E+01   9.520000E+01   9.517000E+01   9.514000E+01   9.511000E+01   9.508000E+01   9.505000E+01   9.502000E+01   9.499000E+01   9.496000E+01   9.493000E+01   9.490000E+01   9.487000E+01   9.484000E+01   9.481000E+01   9.478000E+01   9.475000E+01   9.472000E+01   9.469000E+01   9.466000E+01   9.463000E+01   9.460000E+01   9.457000E+01   9.454000E+01   9.451000E+01   9.448000E+01   9.445000E+01   9.442000E+01   9.439000E+01   9.436000E+01   9.433000E+01   9.430000E+01   9.427000E+01   9.424000E+01   9.421000E+01   9.418000E+01   9.415000E+01   9.412000E+01   9.409000E+01   9.406000E+01   9.403000E+01   9.400000E+01   9.397000E+01   9.394000E+01   9.391000E+01   9.388000E+01   9.385000E+01   9.382000E+01   9.379000E+01   9.376000E+01   9.373000E+01   9.370000E+01   9.367000E+01   9.364000E+01   9.361000E+01   9.358000E+01   9.355000E+01   9.352000E+01   9.349000E+01   9.346000E+01   9.343000E+01   9.340000E+01   9.337000E+01   9.334000E+01   9.331000E+01   9.328000E+01   9.325000E+01   9.322000E+01   9.319000E+01   9.316000E+01   9.313000E+01   9.310000E+01   9.307000E+01   9.304000E+01   9.301000E+01   9.298000E+01   9.295000E+01   9.292000E+01   9.289000E+01   9.286000E+01   9.283000E+01   9.280000E+01   9.277000E+01   9.274000E+01   9.271000E+01   9.268000E+01   9.265000E+01   9.262000E+01   9.259000E+01   9.256000E+01   9.253000E+01   9.250000E+01   9.247000E+01   9.244000E+01   9.241000E+01   9.238000E+01   9.235000E+01   9.232000E+01   9.229000E+01   9.226000E+01   9.223000E+01   9.220000E+01   9.217000E+01   9.214000E+01   9.211000E+01   9.208000E+01   9.205000E+01   9.202000E+01   9.199000E+01   9.196000E+01   9.193000E+01   9.190000E+01   9.187000E+01   9.184000E+01   9.181000E+01   9.178000E+01   9.175000E+01   9.172000E+01   9.169000E+01   9.166000E+01   9.163000E+01   9.160000E+01   9.157000E+01   9.154000E+01   9.151000E+01   9.148000E+01   9.145000E+01   9.142000E+01   9.139000E+01   9.136000E+01   9.133000E+01   9.130000E+01   9.127000E+01   9.124000E+01   9.121000E+01   9.118000E+01   9.115000E+01   9.112000E+01   9.109000E+01   9.106000E+01   9.103000E+01   9.100000E+01   9.097000E+01   9.094000E+01   9.091000E+01   9.088000E+01   9.085000E+01   9.082000E+01   9.079000E+01   9.076000E+01   9.073000E+01   9.070000E+01   9.067000E+01   9.064000E+01   9.061000E+01   9.058000E+01   9.055000E+01   9.052000E+01   9.049000E+01   9.046000E+01   9.043000E+01   9.040000E+01   9.037000E+01   9.034000E+01   9.031000E+01   9.028000E+01   9.025000E+01   9.022000E+01   9.019000E+01   9.016000E+01   9.013000E+01   9.010000E+01   9.007000E+01   9.004000E+01   9.001000E+01   8.998000E+01   8.995000E+01   8.992000E+01   8.989000E+01   8.986000E+01   8.983000E+01   8.980000E+01   8.977000E+01   8.974000E+01   8.971000E+01   8.968000E+01   8.965000E+01   8.962000E+01   8.959000E+01   8.956000E+01   8.953000E+01   8.950000E+01   8.947000E+01   8.944000E+01   8.941000E+01   8.938000E+01   8.935000E+01   8.932000E+01   8.929000E+01   8.926000E+01   8.923000E+01   8.920000E+01   8.917000E+01   8.914000E+01   8.911000E+01   8.908000E+01   8.905000E+01   8.902000E+01   8.899000E+01   8.896000E+01   8.893000E+01   8.890000E+01   8.887000E+01   8.884000E+01   8.881000E+01   8.878000E+01   8.875000E+01   8.872000E+01   8.869000E+01   8.866000E+01   8.863000E+01   8.860000E+01   8.857000E+01   8.854000E+01   8.851000E+01   8.848000E+01   8.845000E+01   8.842000E+01   8.839000E+01   8.836000E+01   8.833000E+01   8.830000E+01   8.827000E+01   8.824000E+01   8.821000E+01   8.818000E+01   8.815000E+01   8.812000E+01   8.809000E+01   8.806000E+01   8.803000E+01   8.800000E+01   8.797000E+01   8.794000E+01   8.791000E+01   8.788000E+01   8.785000E+01   8.782000E+01   8.779000E+01   8.776000E+01   8.773000E+01   8.770000E+01   8.767000E+01   8.764000E+01   8.761000E+01   8.758000E+01   8.755000E+01   8.752000E+01   8.749000E+01   8.746000E+01   8.743000E+01   8.740000E+01   8.737000E+01   8.734000E+01   8.731000E+01   8.728000E+01   8.725000E+01   8.722000E+01   8.719000E+01   8.716000E+01   8.713000E+01   8.710000E+01   8.707000E+01   8.704000E+01   8.701000E+01   8.698000E+01   8.695000E+01   8.692000E+01   8.689000E+01   8.686000E+01   8.683000E+01   8.680000E+01   8.677000E+01   8.674000E+01   8.671000E+01   8.668000E+01   8.665000E+01   8.662000E+01   8.659000E+01   8.656000E+01   8.653000E+01   8.650000E+01   8.647000E+01   8.644000E+01   8.641000E+01   8.638000E+01   8.635000E+01   8.632000E+01   8.629000E+01   8.626000E+01   8.623000E+01   8.620000E+01   8.617000E+01   8.614000E+01   8.611000E+01   8.608000E+01   8.605000E+01   8.602000E+01   8.599000E+01   8.596000E+01   8.593000E+01   8.590000E+01   8.587000E+01   8.584000E+01   8.581000E+01   8.578000E+01   8.575000E+01   8.572000E+01   8.569000E+01   8.566000E+01   8.563000E+01   8.560000E+01   8.557000E+01   8.554000E+01   8.551000E+01   8.548000E+01   8.545000E+01   8.542000E+01   8.539000E+01   8.536000E+01   8.533000E+01   8.530000E+01   8.527000E+01   8.524000E+01   8.521000E+01   8.518000E+01   8.515000E+01   8.512000E+01   8.509000E+01   8.506000E+01   8.503000E+01   8.500000E+01   8.497000E+01   8.494000E+01   8.491000E+01   8.488000E+01   8.485000E+01   8.482000E+01   8.479000E+01   8.476000E+01   8.473000E+01   8.470000E+01   8.467000E+01   8.464000E+01   8.461000E+01   8.458000E+01   8.455000E+01   8.452000E+01   8.449000E+01   8.446000E+01   8.443000E+01   8.440000E+01   8.437000E+01   8.434000E+01   8.431000E+01   8.428000E+01   8.425000E+01   8.422000E+01   8.419000E+01   8.416000E+01   8.413000E+01   8.410000E+01   8.407000E+01   8.404000E+01   8.401000E+01   8.398000E+01   8.395000E+01   8.392000E+01   8.389000E+01   8.386000E+01   8.383000E+01   8.380000E+01   8.377000E+01   8.374000E+01   8.371000E+01   8.368000E+01   8.365000E+01   8.362000E+01   8.359000E+01   8.356000E+01   8.353000E+01   8.350000E+01   8.347000E+01   8.344000E+01   8.341000E+01   8.338000E+01   8.335000E+01   8.332000E+01   8.329000E+01   8.326000E+01   8.323000E+01   8.320000E+01   8.317000E+01   8.314000E+01   8.311000E+01   8.308000E+01   8.305000E+01   8.302000E+01   8.299000E+01   8.296000E+01   8.293000E+01   8.290000E+01   8.287000E+01   8.284000E+01   8.281000E+01   8.278000E+01   8.275000E+01   8.272000E+01   8.269000E+01   8.266000E+01   8.263000E+01   8.260000E+01   8.257000E+01   8.254000E+01   8.251000E+01   8.248000E+01   8.245000E+01   8.242000E+01   8.239000E+01   8.236000E+01   8.233000E+01   8.230000E+01   8.227000E+01   8.224000E+01   8.221000E+01   8.218000E+01   8.215000E+01   8.212000E+01   8.209000E+01   8.206000E+01   8.203000E+01   8.200000E+01   8.197000E+01   8.194000E+01   8.191000E+01   8.188000E+01   8.185000E+01   8.182000E+01   8.179000E+01   8.176000E+01   8.173000E+01   8.170000E+01   8.167000E+01   8.164000E+01   8.161000E+01   8.158000E+01   8.155000E+01   8.152000E+01   8.149000E+01   8.146000E+01   8.143000E+01   8.140000E+01   8.137000E+01   8.134000E+01   8.131000E+01   8.128000E+01   8.125000E+01   8.122000E+01   8.119000E+01   8.116000E+01   8.113000E+01   8.110000E+01   8.107000E+01   8.104000E+01   8.101000E+01   8.098000E+01   8.095000E+01   8.092000E+01   8.089000E+01   8.086000E+01   8.083000E+01   8.080000E+01   8.077000E+01   8.074000E+01   8.071000E+01   8.068000E+01   8.065000E+01   8.062000E+01   8.059000E+01   8.056000E+01   8.053000E+01
INTERNAL               1 (650E15.6) -1 #botm layer 1                  