Conversion from Groundwater Vistas
MT3D Model
         1         3       650         3         1         1
sec   m  g  
 T T F F T F F F F F F F
 1
         0       1.0(10F13.0)                   -1                    #DELTA-X or C
         0       5.0(10F4.0)                    -1                    #DELTA-Y or R
       100  1.00E+00           (650f6.2)         1                    #A9 - HTOP
100.00 99.97 99.94 99.91 99.88 99.85 99.82 99.79 99.76 99.73 99.70 99.67 99.64 99.61 99.58 99.55 99.52 99.49 99.46 99.43 99.40 99.37 99.34 99.31 99.28 99.25 99.22 99.19 99.16 99.13 99.10 99.07 99.04 99.01 98.98 98.95 98.92 98.89 98.86 98.83 98.80 98.77 98.74 98.71 98.68 98.65 98.62 98.59 98.56 98.53 98.50 98.47 98.44 98.41 98.38 98.35 98.32 98.29 98.26 98.23 98.20 98.17 98.14 98.11 98.08 98.05 98.02 97.99 97.96 97.93 97.90 97.87 97.84 97.81 97.78 97.75 97.72 97.69 97.66 97.63 97.60 97.57 97.54 97.51 97.48 97.45 97.42 97.39 97.36 97.33 97.30 97.27 97.24 97.21 97.18 97.15 97.12 97.09 97.06 97.03 97.00 96.97 96.94 96.91 96.88 96.85 96.82 96.79 96.76 96.73 96.70 96.67 96.64 96.61 96.58 96.55 96.52 96.49 96.46 96.43 96.40 96.37 96.34 96.31 96.28 96.25 96.22 96.19 96.16 96.13 96.10 96.07 96.04 96.01 95.98 95.95 95.92 95.89 95.86 95.83 95.80 95.77 95.74 95.71 95.68 95.65 95.62 95.59 95.56 95.53 95.50 95.47 95.44 95.41 95.38 95.35 95.32 95.29 95.26 95.23 95.20 95.17 95.14 95.11 95.08 95.05 95.02 94.99 94.96 94.93 94.90 94.87 94.84 94.81 94.78 94.75 94.72 94.69 94.66 94.63 94.60 94.57 94.54 94.51 94.48 94.45 94.42 94.39 94.36 94.33 94.30 94.27 94.24 94.21 94.18 94.15 94.12 94.09 94.06 94.03 94.00 93.97 93.94 93.91 93.88 93.85 93.82 93.79 93.76 93.73 93.70 93.67 93.64 93.61 93.58 93.55 93.52 93.49 93.46 93.43 93.40 93.37 93.34 93.31 93.28 93.25 93.22 93.19 93.16 93.13 93.10 93.07 93.04 93.01 92.98 92.95 92.92 92.89 92.86 92.83 92.80 92.77 92.74 92.71 92.68 92.65 92.62 92.59 92.56 92.53 92.50 92.47 92.44 92.41 92.38 92.35 92.32 92.29 92.26 92.23 92.20 92.17 92.14 92.11 92.08 92.05 92.02 91.99 91.96 91.93 91.90 91.87 91.84 91.81 91.78 91.75 91.72 91.69 91.66 91.63 91.60 91.57 91.54 91.51 91.48 91.45 91.42 91.39 91.36 91.33 91.30 91.27 91.24 91.21 91.18 91.15 91.12 91.09 91.06 91.03 91.00 90.97 90.94 90.91 90.88 90.85 90.82 90.79 90.76 90.73 90.70 90.67 90.64 90.61 90.58 90.55 90.52 90.49 90.46 90.43 90.40 90.37 90.34 90.31 90.28 90.25 90.22 90.19 90.16 90.13 90.10 90.07 90.04 90.01 89.98 89.95 89.92 89.89 89.86 89.83 89.80 89.77 89.74 89.71 89.68 89.65 89.62 89.59 89.56 89.53 89.50 89.47 89.44 89.41 89.38 89.35 89.32 89.29 89.26 89.23 89.20 89.17 89.14 89.11 89.08 89.05 89.02 88.99 88.96 88.93 88.90 88.87 88.84 88.81 88.78 88.75 88.72 88.69 88.66 88.63 88.60 88.57 88.54 88.51 88.48 88.45 88.42 88.39 88.36 88.33 88.30 88.27 88.24 88.21 88.18 88.15 88.12 88.09 88.06 88.03 88.00 87.97 87.94 87.91 87.88 87.85 87.82 87.79 87.76 87.73 87.70 87.67 87.64 87.61 87.58 87.55 87.52 87.49 87.46 87.43 87.40 87.37 87.34 87.31 87.28 87.25 87.22 87.19 87.16 87.13 87.10 87.07 87.04 87.01 86.98 86.95 86.92 86.89 86.86 86.83 86.80 86.77 86.74 86.71 86.68 86.65 86.62 86.59 86.56 86.53 86.50 86.47 86.44 86.41 86.38 86.35 86.32 86.29 86.26 86.23 86.20 86.17 86.14 86.11 86.08 86.05 86.02 85.99 85.96 85.93 85.90 85.87 85.84 85.81 85.78 85.75 85.72 85.69 85.66 85.63 85.60 85.57 85.54 85.51 85.48 85.45 85.42 85.39 85.36 85.33 85.30 85.27 85.24 85.21 85.18 85.15 85.12 85.09 85.06 85.03 85.00 84.97 84.94 84.91 84.88 84.85 84.82 84.79 84.76 84.73 84.70 84.67 84.64 84.61 84.58 84.55 84.52 84.49 84.46 84.43 84.40 84.37 84.34 84.31 84.28 84.25 84.22 84.19 84.16 84.13 84.10 84.07 84.04 84.01 83.98 83.95 83.92 83.89 83.86 83.83 83.80 83.77 83.74 83.71 83.68 83.65 83.62 83.59 83.56 83.53 83.50 83.47 83.44 83.41 83.38 83.35 83.32 83.29 83.26 83.23 83.20 83.17 83.14 83.11 83.08 83.05 83.02 82.99 82.96 82.93 82.90 82.87 82.84 82.81 82.78 82.75 82.72 82.69 82.66 82.63 82.60 82.57 82.54 82.51 82.48 82.45 82.42 82.39 82.36 82.33 82.30 82.27 82.24 82.21 82.18 82.15 82.12 82.09 82.06 82.03 82.00 81.97 81.94 81.91 81.88 81.85 81.82 81.79 81.76 81.73 81.70 81.67 81.64 81.61 81.58 81.55 81.52 81.49 81.46 81.43 81.40 81.37 81.34 81.31 81.28 81.25 81.22 81.19 81.16 81.13 81.10 81.07 81.04 81.01 80.98 80.95 80.92 80.89 80.86 80.83 80.80 80.77 80.74 80.71 80.68 80.65 80.62 80.59 80.56 80.53
100.00 99.97 99.94 99.91 99.88 99.85 99.82 99.79 99.76 99.73 99.70 99.67 99.64 99.61 99.58 99.55 99.52 99.49 99.46 99.43 99.40 99.37 99.34 99.31 99.28 99.25 99.22 99.19 99.16 99.13 99.10 99.07 99.04 99.01 98.98 98.95 98.92 98.89 98.86 98.83 98.80 98.77 98.74 98.71 98.68 98.65 98.62 98.59 98.56 98.53 98.50 98.47 98.44 98.41 98.38 98.35 98.32 98.29 98.26 98.23 98.20 98.17 98.14 98.11 98.08 98.05 98.02 97.99 97.96 97.93 97.90 97.87 97.84 97.81 97.78 97.75 97.72 97.69 97.66 97.63 97.60 97.57 97.54 97.51 97.48 97.45 97.42 97.39 97.36 97.33 97.30 97.27 97.24 97.21 97.18 97.15 97.12 97.09 97.06 97.03 97.00 96.97 96.94 96.91 96.88 96.85 96.82 96.79 96.76 96.73 96.70 96.67 96.64 96.61 96.58 96.55 96.52 96.49 96.46 96.43 96.40 96.37 96.34 96.31 96.28 96.25 96.22 96.19 96.16 96.13 96.10 96.07 96.04 96.01 95.98 95.95 95.92 95.89 95.86 95.83 95.80 95.77 95.74 95.71 95.68 95.65 95.62 95.59 95.56 95.53 95.50 95.47 95.44 95.41 95.38 95.35 95.32 95.29 95.26 95.23 95.20 95.17 95.14 95.11 95.08 95.05 95.02 94.99 94.96 94.93 94.90 94.87 94.84 94.81 94.78 94.75 94.72 94.69 94.66 94.63 94.60 94.57 94.54 94.51 94.48 94.45 94.42 94.39 94.36 94.33 94.30 94.27 94.24 94.21 94.18 94.15 94.12 94.09 94.06 94.03 94.00 93.97 93.94 93.91 93.88 93.85 93.82 93.79 93.76 93.73 93.70 93.67 93.64 93.61 93.58 93.55 93.52 93.49 93.46 93.43 93.40 93.37 93.34 93.31 93.28 93.25 93.22 93.19 93.16 93.13 93.10 93.07 93.04 93.01 92.98 92.95 92.92 92.89 92.86 92.83 92.80 92.77 92.74 92.71 92.68 92.65 92.62 92.59 92.56 92.53 92.50 92.47 92.44 92.41 92.38 92.35 92.32 92.29 92.26 92.23 92.20 92.17 92.14 92.11 92.08 92.05 92.02 91.99 91.96 91.93 91.90 91.87 91.84 91.81 91.78 91.75 91.72 91.69 91.66 91.63 91.60 91.57 91.54 91.51 91.48 91.45 91.42 91.39 91.36 91.33 91.30 91.27 91.24 91.21 91.18 91.15 91.12 91.09 91.06 91.03 91.00 90.97 90.94 90.91 90.88 90.85 90.82 90.79 90.76 90.73 90.70 90.67 90.64 90.61 90.58 90.55 90.52 90.49 90.46 90.43 90.40 90.37 90.34 90.31 90.28 90.25 90.22 90.19 90.16 90.13 90.10 90.07 90.04 90.01 89.98 89.95 89.92 89.89 89.86 89.83 89.80 89.77 89.74 89.71 89.68 89.65 89.62 89.59 89.56 89.53 89.50 89.47 89.44 89.41 89.38 89.35 89.32 89.29 89.26 89.23 89.20 89.17 89.14 89.11 89.08 89.05 89.02 88.99 88.96 88.93 88.90 88.87 88.84 88.81 88.78 88.75 88.72 88.69 88.66 88.63 88.60 88.57 88.54 88.51 88.48 88.45 88.42 88.39 88.36 88.33 88.30 88.27 88.24 88.21 88.18 88.15 88.12 88.09 88.06 88.03 88.00 87.97 87.94 87.91 87.88 87.85 87.82 87.79 87.76 87.73 87.70 87.67 87.64 87.61 87.58 87.55 87.52 87.49 87.46 87.43 87.40 87.37 87.34 87.31 87.28 87.25 87.22 87.19 87.16 87.13 87.10 87.07 87.04 87.01 86.98 86.95 86.92 86.89 86.86 86.83 86.80 86.77 86.74 86.71 86.68 86.65 86.62 86.59 86.56 86.53 86.50 86.47 86.44 86.41 86.38 86.35 86.32 86.29 86.26 86.23 86.20 86.17 86.14 86.11 86.08 86.05 86.02 85.99 85.96 85.93 85.90 85.87 85.84 85.81 85.78 85.75 85.72 85.69 85.66 85.63 85.60 85.57 85.54 85.51 85.48 85.45 85.42 85.39 85.36 85.33 85.30 85.27 85.24 85.21 85.18 85.15 85.12 85.09 85.06 85.03 85.00 84.97 84.94 84.91 84.88 84.85 84.82 84.79 84.76 84.73 84.70 84.67 84.64 84.61 84.58 84.55 84.52 84.49 84.46 84.43 84.40 84.37 84.34 84.31 84.28 84.25 84.22 84.19 84.16 84.13 84.10 84.07 84.04 84.01 83.98 83.95 83.92 83.89 83.86 83.83 83.80 83.77 83.74 83.71 83.68 83.65 83.62 83.59 83.56 83.53 83.50 83.47 83.44 83.41 83.38 83.35 83.32 83.29 83.26 83.23 83.20 83.17 83.14 83.11 83.08 83.05 83.02 82.99 82.96 82.93 82.90 82.87 82.84 82.81 82.78 82.75 82.72 82.69 82.66 82.63 82.60 82.57 82.54 82.51 82.48 82.45 82.42 82.39 82.36 82.33 82.30 82.27 82.24 82.21 82.18 82.15 82.12 82.09 82.06 82.03 82.00 81.97 81.94 81.91 81.88 81.85 81.82 81.79 81.76 81.73 81.70 81.67 81.64 81.61 81.58 81.55 81.52 81.49 81.46 81.43 81.40 81.37 81.34 81.31 81.28 81.25 81.22 81.19 81.16 81.13 81.10 81.07 81.04 81.01 80.98 80.95 80.92 80.89 80.86 80.83 80.80 80.77 80.74 80.71 80.68 80.65 80.62 80.59 80.56 80.53
100.00 99.97 99.94 99.91 99.88 99.85 99.82 99.79 99.76 99.73 99.70 99.67 99.64 99.61 99.58 99.55 99.52 99.49 99.46 99.43 99.40 99.37 99.34 99.31 99.28 99.25 99.22 99.19 99.16 99.13 99.10 99.07 99.04 99.01 98.98 98.95 98.92 98.89 98.86 98.83 98.80 98.77 98.74 98.71 98.68 98.65 98.62 98.59 98.56 98.53 98.50 98.47 98.44 98.41 98.38 98.35 98.32 98.29 98.26 98.23 98.20 98.17 98.14 98.11 98.08 98.05 98.02 97.99 97.96 97.93 97.90 97.87 97.84 97.81 97.78 97.75 97.72 97.69 97.66 97.63 97.60 97.57 97.54 97.51 97.48 97.45 97.42 97.39 97.36 97.33 97.30 97.27 97.24 97.21 97.18 97.15 97.12 97.09 97.06 97.03 97.00 96.97 96.94 96.91 96.88 96.85 96.82 96.79 96.76 96.73 96.70 96.67 96.64 96.61 96.58 96.55 96.52 96.49 96.46 96.43 96.40 96.37 96.34 96.31 96.28 96.25 96.22 96.19 96.16 96.13 96.10 96.07 96.04 96.01 95.98 95.95 95.92 95.89 95.86 95.83 95.80 95.77 95.74 95.71 95.68 95.65 95.62 95.59 95.56 95.53 95.50 95.47 95.44 95.41 95.38 95.35 95.32 95.29 95.26 95.23 95.20 95.17 95.14 95.11 95.08 95.05 95.02 94.99 94.96 94.93 94.90 94.87 94.84 94.81 94.78 94.75 94.72 94.69 94.66 94.63 94.60 94.57 94.54 94.51 94.48 94.45 94.42 94.39 94.36 94.33 94.30 94.27 94.24 94.21 94.18 94.15 94.12 94.09 94.06 94.03 94.00 93.97 93.94 93.91 93.88 93.85 93.82 93.79 93.76 93.73 93.70 93.67 93.64 93.61 93.58 93.55 93.52 93.49 93.46 93.43 93.40 93.37 93.34 93.31 93.28 93.25 93.22 93.19 93.16 93.13 93.10 93.07 93.04 93.01 92.98 92.95 92.92 92.89 92.86 92.83 92.80 92.77 92.74 92.71 92.68 92.65 92.62 92.59 92.56 92.53 92.50 92.47 92.44 92.41 92.38 92.35 92.32 92.29 92.26 92.23 92.20 92.17 92.14 92.11 92.08 92.05 92.02 91.99 91.96 91.93 91.90 91.87 91.84 91.81 91.78 91.75 91.72 91.69 91.66 91.63 91.60 91.57 91.54 91.51 91.48 91.45 91.42 91.39 91.36 91.33 91.30 91.27 91.24 91.21 91.18 91.15 91.12 91.09 91.06 91.03 91.00 90.97 90.94 90.91 90.88 90.85 90.82 90.79 90.76 90.73 90.70 90.67 90.64 90.61 90.58 90.55 90.52 90.49 90.46 90.43 90.40 90.37 90.34 90.31 90.28 90.25 90.22 90.19 90.16 90.13 90.10 90.07 90.04 90.01 89.98 89.95 89.92 89.89 89.86 89.83 89.80 89.77 89.74 89.71 89.68 89.65 89.62 89.59 89.56 89.53 89.50 89.47 89.44 89.41 89.38 89.35 89.32 89.29 89.26 89.23 89.20 89.17 89.14 89.11 89.08 89.05 89.02 88.99 88.96 88.93 88.90 88.87 88.84 88.81 88.78 88.75 88.72 88.69 88.66 88.63 88.60 88.57 88.54 88.51 88.48 88.45 88.42 88.39 88.36 88.33 88.30 88.27 88.24 88.21 88.18 88.15 88.12 88.09 88.06 88.03 88.00 87.97 87.94 87.91 87.88 87.85 87.82 87.79 87.76 87.73 87.70 87.67 87.64 87.61 87.58 87.55 87.52 87.49 87.46 87.43 87.40 87.37 87.34 87.31 87.28 87.25 87.22 87.19 87.16 87.13 87.10 87.07 87.04 87.01 86.98 86.95 86.92 86.89 86.86 86.83 86.80 86.77 86.74 86.71 86.68 86.65 86.62 86.59 86.56 86.53 86.50 86.47 86.44 86.41 86.38 86.35 86.32 86.29 86.26 86.23 86.20 86.17 86.14 86.11 86.08 86.05 86.02 85.99 85.96 85.93 85.90 85.87 85.84 85.81 85.78 85.75 85.72 85.69 85.66 85.63 85.60 85.57 85.54 85.51 85.48 85.45 85.42 85.39 85.36 85.33 85.30 85.27 85.24 85.21 85.18 85.15 85.12 85.09 85.06 85.03 85.00 84.97 84.94 84.91 84.88 84.85 84.82 84.79 84.76 84.73 84.70 84.67 84.64 84.61 84.58 84.55 84.52 84.49 84.46 84.43 84.40 84.37 84.34 84.31 84.28 84.25 84.22 84.19 84.16 84.13 84.10 84.07 84.04 84.01 83.98 83.95 83.92 83.89 83.86 83.83 83.80 83.77 83.74 83.71 83.68 83.65 83.62 83.59 83.56 83.53 83.50 83.47 83.44 83.41 83.38 83.35 83.32 83.29 83.26 83.23 83.20 83.17 83.14 83.11 83.08 83.05 83.02 82.99 82.96 82.93 82.90 82.87 82.84 82.81 82.78 82.75 82.72 82.69 82.66 82.63 82.60 82.57 82.54 82.51 82.48 82.45 82.42 82.39 82.36 82.33 82.30 82.27 82.24 82.21 82.18 82.15 82.12 82.09 82.06 82.03 82.00 81.97 81.94 81.91 81.88 81.85 81.82 81.79 81.76 81.73 81.70 81.67 81.64 81.61 81.58 81.55 81.52 81.49 81.46 81.43 81.40 81.37 81.34 81.31 81.28 81.25 81.22 81.19 81.16 81.13 81.10 81.07 81.04 81.01 80.98 80.95 80.92 80.89 80.86 80.83 80.80 80.77 80.74 80.71 80.68 80.65 80.62 80.59 80.56 80.53
       100  1.00E+00           (650f6.2)         1                    #A10 - DZ (lay 1)
  3.00  3.00  3.00  3.00  3.00  3.00  3.00  3.00  3.00  3.00  3.00  3.00  3.00  3.00  3.00  3.00  3.00  3.00  3.00  3.00  3.00  3.00  3.00  3.00  3.00  3.00  3.00  3.00  3.00  3.00  3.00  3.00  3.00  3.00  3.00  3.00  3.00  3.00  3.00  3.00  3.00  3.00  3.00  3.00  3.00  3.00  3.00  3.00  3.00  3.00  3.00  3.00  3.00  3.00  3.00  3.00  3.00  3.00  3.00  3.00  3.00  3.00  3.00  3.00  3.00  3.00  3.00  3.00  3.00  3.00  3.00  3.00  3.00  3.00  3.00  3.00  3.00  3.00  3.00  3.00  3.00  3.00  3.00  3.00  3.00  3.00  3.00  3.00  3.00  3.00  3.00  3.00  3.00  3.00  3.00  3.00  3.00  3.00  3.00  3.00  3.00  3.00  3.00  3.00  3.00  3.00  3.00  3.00  3.00  3.00  3.00  3.00  3.00  3.00  3.00  3.00  3.00  3.00  3.00  3.00  3.00  3.00  3.00  3.00  3.00  3.00  3.00  3.00  3.00  3.00  3.00  3.00  3.00  3.00  3.00  3.00  3.00  3.00  3.00  3.00  3.00  3.00  3.00  3.00  3.00  3.00  3.00  3.00  3.00  3.00  3.00  3.00  3.00  3.00  3.00  3.00  3.00  3.00  3.00  3.00  3.00  3.00  3.00  3.00  3.00  3.00  3.00  3.00  3.00  3.00  3.00  3.00  3.00  3.00  3.00  3.00  3.00  3.00  3.00  3.00  3.00  3.00  3.00  3.00  3.00  3.00  3.00  3.00  3.00  3.00  3.00  3.00  3.00  3.00  3.00  3.00  3.00  3.00  3.00  3.00  3.00  3.00  3.00  3.00  3.00  3.00  3.00  3.00  3.00  3.00  3.00  3.00  3.00  3.00  3.00  3.00  3.00  3.00  3.00  3.00  3.00  3.00  3.00  3.00  3.00  3.00  3.00  3.00  3.00  3.00  3.00  3.00  3.00  3.00  3.00  3.00  3.00  3.00  3.00  3.00  3.00  3.00  3.00  3.00  3.00  3.00  3.00  3.00  3.00  3.00  3.00  3.00  3.00  3.00  3.00  3.00  3.00  3.00  3.00  3.00  3.00  3.00  3.00  3.00  3.00  3.00  3.00  3.00  3.00  3.00  3.00  3.00  3.00  3.00  3.00  3.00  3.00  3.00  3.00  3.00  3.00  3.00  3.00  3.00  3.00  3.00  3.00  3.00  3.00  3.00  3.00  3.00  3.00  3.00  3.00  3.00  3.00  3.00  3.00  3.00  3.00  3.00  3.00  3.00  3.00  3.00  3.00  3.00  3.00  3.00  3.00  3.00  3.00  3.00  3.00  3.00  3.00  3.00  3.00  3.00  3.00  3.00  3.00  3.00  3.00  3.00  3.00  3.00  3.00  3.00  3.00  3.00  3.00  3.00  3.00  3.00  3.00  3.00  3.00  3.00  3.00  3.00  3.00  3.00  3.00  3.00  3.00  3.00  3.00  3.00  3.00  3.00  3.00  3.00  3.00  3.00  3.00  3.00  3.00  3.00  3.00  3.00  3.00  3.00  3.00  3.00  3.00  3.00  3.00  3.00  3.00  3.00  3.00  3.00  3.00  3.00  3.00  3.00  3.00  3.00  3.00  3.00  3.00  3.00  3.00  3.00  3.00  3.00  3.00  3.00  3.00  3.00  3.00  3.00  3.00  3.00  3.00  3.00  3.00  3.00  3.00  3.00  3.00  3.00  3.00  3.00  3.00  3.00  3.00  3.00  3.00  3.00  3.00  3.00  3.00  3.00  3.00  3.00  3.00  3.00  3.00  3.00  3.00  3.00  3.00  3.00  3.00  3.00  3.00  3.00  3.00  3.00  3.00  3.00  3.00  3.00  3.00  3.00  3.00  3.00  3.00  3.00  3.00  3.00  3.00  3.00  3.00  3.00  3.00  3.00  3.00  3.00  3.00  3.00  3.00  3.00  3.00  3.00  3.00  3.00  3.00  3.00  3.00  3.00  3.00  3.00  3.00  3.00  3.00  3.00  3.00  3.00  3.00  3.00  3.00  3.00  3.00  3.00  3.00  3.00  3.00  3.00  3.00  3.00  3.00  3.00  3.00  3.00  3.00  3.00  3.00  3.00  3.00  3.00  3.00  3.00  3.00  3.00  3.00  3.00  3.00  3.00  3.00  3.00  3.00  3.00  3.00  3.00  3.00  3.00  3.00  3.00  3.00  3.00  3.00  3.00  3.00  3.00  3.00  3.00  3.00  3.00  3.00  3.00  3.00  3.00  3.00  3.00  3.00  3.00  3.00  3.00  3.00  3.00  3.00  3.00  3.00  3.00  3.00  3.00  3.00  3.00  3.00  3.00  3.00  3.00  3.00  3.00  3.00  3.00  3.00  3.00  3.00  3.00  3.00  3.00  3.00  3.00  3.00  3.00  3.00  3.00  3.00  3.00  3.00  3.00  3.00  3.00  3.00  3.00  3.00  3.00  3.00  3.00  3.00  3.00  3.00  3.00  3.00  3.00  3.00  3.00  3.00  3.00  3.00  3.00  3.00  3.00  3.00  3.00  3.00  3.00  3.00  3.00  3.00  3.00  3.00  3.00  3.00  3.00  3.00  3.00  3.00  3.00  3.00  3.00  3.00  3.00  3.00  3.00  3.00  3.00  3.00  3.00  3.00  3.00  3.00  3.00  3.00  3.00  3.00  3.00  3.00  3.00  3.00  3.00  3.00  3.00  3.00  3.00  3.00  3.00  3.00  3.00  3.00  3.00  3.00  3.00  3.00  3.00  3.00  3.00  3.00  3.00  3.00  3.00  3.00  3.00  3.00  3.00
  3.00  3.00  3.00  3.00  3.00  3.00  3.00  3.00  3.00  3.00  3.00  3.00  3.00  3.00  3.00  3.00  3.00  3.00  3.00  3.00  3.00  3.00  3.00  3.00  3.00  3.00  3.00  3.00  3.00  3.00  3.00  3.00  3.00  3.00  3.00  3.00  3.00  3.00  3.00  3.00  3.00  3.00  3.00  3.00  3.00  3.00  3.00  3.00  3.00  3.00  3.00  3.00  3.00  3.00  3.00  3.00  3.00  3.00  3.00  3.00  3.00  3.00  3.00  3.00  3.00  3.00  3.00  3.00  3.00  3.00  3.00  3.00  3.00  3.00  3.00  3.00  3.00  3.00  3.00  3.00  3.00  3.00  3.00  3.00  3.00  3.00  3.00  3.00  3.00  3.00  3.00  3.00  3.00  3.00  3.00  3.00  3.00  3.00  3.00  3.00  3.00  3.00  3.00  3.00  3.00  3.00  3.00  3.00  3.00  3.00  3.00  3.00  3.00  3.00  3.00  3.00  3.00  3.00  3.00  3.00  3.00  3.00  3.00  3.00  3.00  3.00  3.00  3.00  3.00  3.00  3.00  3.00  3.00  3.00  3.00  3.00  3.00  3.00  3.00  3.00  3.00  3.00  3.00  3.00  3.00  3.00  3.00  3.00  3.00  3.00  3.00  3.00  3.00  3.00  3.00  3.00  3.00  3.00  3.00  3.00  3.00  3.00  3.00  3.00  3.00  3.00  3.00  3.00  3.00  3.00  3.00  3.00  3.00  3.00  3.00  3.00  3.00  3.00  3.00  3.00  3.00  3.00  3.00  3.00  3.00  3.00  3.00  3.00  3.00  3.00  3.00  3.00  3.00  3.00  3.00  3.00  3.00  3.00  3.00  3.00  3.00  3.00  3.00  3.00  3.00  3.00  3.00  3.00  3.00  3.00  3.00  3.00  3.00  3.00  3.00  3.00  3.00  3.00  3.00  3.00  3.00  3.00  3.00  3.00  3.00  3.00  3.00  3.00  3.00  3.00  3.00  3.00  3.00  3.00  3.00  3.00  3.00  3.00  3.00  3.00  3.00  3.00  3.00  3.00  3.00  3.00  3.00  3.00  3.00  3.00  3.00  3.00  3.00  3.00  3.00  3.00  3.00  3.00  3.00  3.00  3.00  3.00  3.00  3.00  3.00  3.00  3.00  3.00  3.00  3.00  3.00  3.00  3.00  3.00  3.00  3.00  3.00  3.00  3.00  3.00  3.00  3.00  3.00  3.00  3.00  3.00  3.00  3.00  3.00  3.00  3.00  3.00  3.00  3.00  3.00  3.00  3.00  3.00  3.00  3.00  3.00  3.00  3.00  3.00  3.00  3.00  3.00  3.00  3.00  3.00  3.00  3.00  3.00  3.00  3.00  3.00  3.00  3.00  3.00  3.00  3.00  3.00  3.00  3.00  3.00  3.00  3.00  3.00  3.00  3.00  3.00  3.00  3.00  3.00  3.00  3.00  3.00  3.00  3.00  3.00  3.00  3.00  3.00  3.00  3.00  3.00  3.00  3.00  3.00  3.00  3.00  3.00  3.00  3.00  3.00  3.00  3.00  3.00  3.00  3.00  3.00  3.00  3.00  3.00  3.00  3.00  3.00  3.00  3.00  3.00  3.00  3.00  3.00  3.00  3.00  3.00  3.00  3.00  3.00  3.00  3.00  3.00  3.00  3.00  3.00  3.00  3.00  3.00  3.00  3.00  3.00  3.00  3.00  3.00  3.00  3.00  3.00  3.00  3.00  3.00  3.00  3.00  3.00  3.00  3.00  3.00  3.00  3.00  3.00  3.00  3.00  3.00  3.00  3.00  3.00  3.00  3.00  3.00  3.00  3.00  3.00  3.00  3.00  3.00  3.00  3.00  3.00  3.00  3.00  3.00  3.00  3.00  3.00  3.00  3.00  3.00  3.00  3.00  3.00  3.00  3.00  3.00  3.00  3.00  3.00  3.00  3.00  3.00  3.00  3.00  3.00  3.00  3.00  3.00  3.00  3.00  3.00  3.00  3.00  3.00  3.00  3.00  3.00  3.00  3.00  3.00  3.00  3.00  3.00  3.00  3.00  3.00  3.00  3.00  3.00  3.00  3.00  3.00  3.00  3.00  3.00  3.00  3.00  3.00  3.00  3.00  3.00  3.00  3.00  3.00  3.00  3.00  3.00  3.00  3.00  3.00  3.00  3.00  3.00  3.00  3.00  3.00  3.00  3.00  3.00  3.00  3.00  3.00  3.00  3.00  3.00  3.00  3.00  3.00  3.00  3.00  3.00  3.00  3.00  3.00  3.00  3.00  3.00  3.00  3.00  3.00  3.00  3.00  3.00  3.00  3.00  3.00  3.00  3.00  3.00  3.00  3.00  3.00  3.00  3.00  3.00  3.00  3.00  3.00  3.00  3.00  3.00  3.00  3.00  3.00  3.00  3.00  3.00  3.00  3.00  3.00  3.00  3.00  3.00  3.00  3.00  3.00  3.00  3.00  3.00  3.00  3.00  3.00  3.00  3.00  3.00  3.00  3.00  3.00  3.00  3.00  3.00  3.00  3.00  3.00  3.00  3.00  3.00  3.00  3.00  3.00  3.00  3.00  3.00  3.00  3.00  3.00  3.00  3.00  3.00  3.00  3.00  3.00  3.00  3.00  3.00  3.00  3.00  3.00  3.00  3.00  3.00  3.00  3.00  3.00  3.00  3.00  3.00  3.00  3.00  3.00  3.00  3.00  3.00  3.00  3.00  3.00  3.00  3.00  3.00  3.00  3.00  3.00  3.00  3.00  3.00  3.00  3.00  3.00  3.00  3.00  3.00  3.00  3.00  3.00  3.00  3.00  3.00  3.00  3.00  3.00  3.00  3.00  3.00  3.00
  3.00  3.00  3.00  3.00  3.00  3.00  3.00  3.00  3.00  3.00  3.00  3.00  3.00  3.00  3.00  3.00  3.00  3.00  3.00  3.00  3.00  3.00  3.00  3.00  3.00  3.00  3.00  3.00  3.00  3.00  3.00  3.00  3.00  3.00  3.00  3.00  3.00  3.00  3.00  3.00  3.00  3.00  3.00  3.00  3.00  3.00  3.00  3.00  3.00  3.00  3.00  3.00  3.00  3.00  3.00  3.00  3.00  3.00  3.00  3.00  3.00  3.00  3.00  3.00  3.00  3.00  3.00  3.00  3.00  3.00  3.00  3.00  3.00  3.00  3.00  3.00  3.00  3.00  3.00  3.00  3.00  3.00  3.00  3.00  3.00  3.00  3.00  3.00  3.00  3.00  3.00  3.00  3.00  3.00  3.00  3.00  3.00  3.00  3.00  3.00  3.00  3.00  3.00  3.00  3.00  3.00  3.00  3.00  3.00  3.00  3.00  3.00  3.00  3.00  3.00  3.00  3.00  3.00  3.00  3.00  3.00  3.00  3.00  3.00  3.00  3.00  3.00  3.00  3.00  3.00  3.00  3.00  3.00  3.00  3.00  3.00  3.00  3.00  3.00  3.00  3.00  3.00  3.00  3.00  3.00  3.00  3.00  3.00  3.00  3.00  3.00  3.00  3.00  3.00  3.00  3.00  3.00  3.00  3.00  3.00  3.00  3.00  3.00  3.00  3.00  3.00  3.00  3.00  3.00  3.00  3.00  3.00  3.00  3.00  3.00  3.00  3.00  3.00  3.00  3.00  3.00  3.00  3.00  3.00  3.00  3.00  3.00  3.00  3.00  3.00  3.00  3.00  3.00  3.00  3.00  3.00  3.00  3.00  3.00  3.00  3.00  3.00  3.00  3.00  3.00  3.00  3.00  3.00  3.00  3.00  3.00  3.00  3.00  3.00  3.00  3.00  3.00  3.00  3.00  3.00  3.00  3.00  3.00  3.00  3.00  3.00  3.00  3.00  3.00  3.00  3.00  3.00  3.00  3.00  3.00  3.00  3.00  3.00  3.00  3.00  3.00  3.00  3.00  3.00  3.00  3.00  3.00  3.00  3.00  3.00  3.00  3.00  3.00  3.00  3.00  3.00  3.00  3.00  3.00  3.00  3.00  3.00  3.00  3.00  3.00  3.00  3.00  3.00  3.00  3.00  3.00  3.00  3.00  3.00  3.00  3.00  3.00  3.00  3.00  3.00  3.00  3.00  3.00  3.00  3.00  3.00  3.00  3.00  3.00  3.00  3.00  3.00  3.00  3.00  3.00  3.00  3.00  3.00  3.00  3.00  3.00  3.00  3.00  3.00  3.00  3.00  3.00  3.00  3.00  3.00  3.00  3.00  3.00  3.00  3.00  3.00  3.00  3.00  3.00  3.00  3.00  3.00  3.00  3.00  3.00  3.00  3.00  3.00  3.00  3.00  3.00  3.00  3.00  3.00  3.00  3.00  3.00  3.00  3.00  3.00  3.00  3.00  3.00  3.00  3.00  3.00  3.00  3.00  3.00  3.00  3.00  3.00  3.00  3.00  3.00  3.00  3.00  3.00  3.00  3.00  3.00  3.00  3.00  3.00  3.00  3.00  3.00  3.00  3.00  3.00  3.00  3.00  3.00  3.00  3.00  3.00  3.00  3.00  3.00  3.00  3.00  3.00  3.00  3.00  3.00  3.00  3.00  3.00  3.00  3.00  3.00  3.00  3.00  3.00  3.00  3.00  3.00  3.00  3.00  3.00  3.00  3.00  3.00  3.00  3.00  3.00  3.00  3.00  3.00  3.00  3.00  3.00  3.00  3.00  3.00  3.00  3.00  3.00  3.00  3.00  3.00  3.00  3.00  3.00  3.00  3.00  3.00  3.00  3.00  3.00  3.00  3.00  3.00  3.00  3.00  3.00  3.00  3.00  3.00  3.00  3.00  3.00  3.00  3.00  3.00  3.00  3.00  3.00  3.00  3.00  3.00  3.00  3.00  3.00  3.00  3.00  3.00  3.00  3.00  3.00  3.00  3.00  3.00  3.00  3.00  3.00  3.00  3.00  3.00  3.00  3.00  3.00  3.00  3.00  3.00  3.00  3.00  3.00  3.00  3.00  3.00  3.00  3.00  3.00  3.00  3.00  3.00  3.00  3.00  3.00  3.00  3.00  3.00  3.00  3.00  3.00  3.00  3.00  3.00  3.00  3.00  3.00  3.00  3.00  3.00  3.00  3.00  3.00  3.00  3.00  3.00  3.00  3.00  3.00  3.00  3.00  3.00  3.00  3.00  3.00  3.00  3.00  3.00  3.00  3.00  3.00  3.00  3.00  3.00  3.00  3.00  3.00  3.00  3.00  3.00  3.00  3.00  3.00  3.00  3.00  3.00  3.00  3.00  3.00  3.00  3.00  3.00  3.00  3.00  3.00  3.00  3.00  3.00  3.00  3.00  3.00  3.00  3.00  3.00  3.00  3.00  3.00  3.00  3.00  3.00  3.00  3.00  3.00  3.00  3.00  3.00  3.00  3.00  3.00  3.00  3.00  3.00  3.00  3.00  3.00  3.00  3.00  3.00  3.00  3.00  3.00  3.00  3.00  3.00  3.00  3.00  3.00  3.00  3.00  3.00  3.00  3.00  3.00  3.00  3.00  3.00  3.00  3.00  3.00  3.00  3.00  3.00  3.00  3.00  3.00  3.00  3.00  3.00  3.00  3.00  3.00  3.00  3.00  3.00  3.00  3.00  3.00  3.00  3.00  3.00  3.00  3.00  3.00  3.00  3.00  3.00  3.00  3.00  3.00  3.00  3.00  3.00  3.00  3.00  3.00  3.00  3.00  3.00  3.00  3.00  3.00  3.00  3.00  3.00  3.00
         0       0.2(10E12.4)                   -1                    #POROSITY Layer   1
         0         1(25I3)                       0                    #ICBUND Layer   1
         0 3.7000000(10E12.4)                   -1                    #INITIAL CONCENTRATION Layer   1
-1.000e+00 1.000e-03                                                  #A16 - CINACT,THKMIN                     
         0         0         0         0         T         F          #A17 - IFMTCN,IFMTNP,IFMTRF,IFMTDP,SAVUCN
        -1                                                            #A18 - NPRS (>0 skip TIMPRS)             
         0        10                                                  #A20 - NOBS,NPROBS (skip KOBS,IOBS,JOBS) 
         T        10                                                  #A22 - CHKMAS,NPRMAS                 
   30600.0         1       1.0   TR                                   #A23 - PERLEN,NSTP,TSMULT, Tracer injected at 8:30am (commences at the end of this stress period)           
       180      2500 1.000e+00 0.000e+00                              #A25 - DT0,MXSTRN,TTSMULT,TTSMAX-SP-1
   10800.0         1       1.0   TR                                   #A23 - PERLEN,NSTP,TSMULT, Tracer injected for a period of 3 hrs (duration of this stress period)
       180      2500 1.000e+00 0.000e+00                              #A25 - DT0,MXSTRN,TTSMULT,TTSMAX-SP-2
   45000.0         1       1.0   TR                                   #A23 - PERLEN,NSTP,TSMULT, Tracer monitored until midnight.
       180      2500 1.000e+00 0.000e+00                              #A25 - DT0,MXSTRN,TTSMULT,TTSMAX-SP-3
