# MODFLOW-NWT Input File
1.0E-4 5.0 5000 1.0e-6  2  1 1 SPECIFIED 0.98 0.0001 0.000  0.10 0  20 2.0 0.6  linmeth=1 (GMRES); =2 (xmd)  
1 0 3 5 1 0.0 1 1.0E-3 1.0e-4 200     100 2  2  1.0e-9  20  4       XMD (faster results--6.7 seconds)