# Output Control for MODPATH7 test problem USG_NESTED_RCH3d
HEAD PRINT FORMAT 4
HEAD SAVE UNIT 51
PERIOD 1 STEP 1
  PRINT HEAD
  PRINT BUDGET
  SAVE HEAD
  SAVE BUDGET
  