# File generated by Flopy version 3.5.0.dev0 on 10/30/2023 at 09:00:51.
BEGIN options
  BOUNDNAMES
  PRINT_INPUT
  PRINT_FLOWS
  OBS6  FILEIN  gwf_bndname01.chd.obs
END options

BEGIN dimensions
  MAXBOUND  2
END dimensions

BEGIN period  1
  1 1 1 1.00000000E+00 "left face""s"
  1 1 100 0.00000000E+00 "right face"
END period  1

