# File generated by Flopy version 3.5.0.dev0 on 10/30/2023 at 09:00:51.
BEGIN options
  SAVE_FLOWS
END options

BEGIN packages
  DIS6  gwf_bndname01.dis  dis
  IC6  gwf_bndname01.ic  ic
  NPF6  gwf_bndname01.npf  npf
  CHD6  gwf_bndname01.chd  chd-1
  OC6  gwf_bndname01.oc  oc
END packages

