# File generated by Flopy version 3.5.0.dev0 on 10/30/2023 at 09:00:51.
BEGIN options
  PRINT_INPUT
END options

BEGIN continuous  FILEOUT  gwf_bndname01.chd.obs.csv
  'left face"s'  chd  'left face"s'
  'right face'  chd  'right face'
END continuous  FILEOUT  gwf_bndname01.chd.obs.csv

