BEGIN OPTIONS
  HEAD FILEOUT flow.hds
  BUDGET FILEOUT flow.cbc
END OPTIONS

BEGIN PERIOD 1
  PRINT BUDGET ALL
  SAVE BUDGET ALL
  PRINT HEAD ALL
  SAVE HEAD ALL
END PERIOD
