BEGIN OPTIONS
END OPTIONS

BEGIN PACKAGES
  DISU6         flow.disu
  IC6           flow.ic
  CHD6          flow.chd
  NPF6          flow.npf
  RCH6          flow.rch
  OC6           flow.oc
END PACKAGES

