begin options
  PRINT_INPUT
  PRINT_FLOWS
  SAVE_FLOWS
end options

begin dimensions
  MAXBOUND 14
end dimensions

begin period 1
 1 1.
 8 1.
15 1.
19 1.
23 1.
27 1.
34 1.

 7 0.
14 0.
18 0.
22 0.
26 0.
33 0.
40 0.
end period
