# Basic package file for MODFLOW-USG, generated by Flopy.
begin options
end options

BEGIN GRIDDATA
strt
INTERNAL  FACTOR         1           IPRN
            1            0            0            0            0
            0            0            1            0            0
            0            0            0            0            1
            0            0            0            1            0
            0            0            1            0            0
            0            1            0            0            0
            0            0            0            1            0
            0            0            0            0            0
            0            0            0            0            0
            0            0            0            0            0
            0            0            0            0            0
            0            0            0            0            0
            0            0            0            0            0
            0            0            0            0            0
            0            0            0            0            0
            0            0            0            0            0
            0            0            0            0            0
            0            0            0            0            0
            0            0            0            0            0
            0            0            0            0            0
            0            0            0            0            0
            0            0            0            0            0
            0            0            0            0            0
            0            0            0            0            0
            0
END GRIDDATA