BEGIN OPTIONS
  FIXED_CELL
END OPTIONS

BEGIN DIMENSIONS
  MAXBOUND  10
END DIMENSIONS

BEGIN PERIOD 1
  1  0.000
  2  0.000
  3  0.000
  4  0.000
  5  0.000
  6  0.000
  7  0.000
  8  0.000
  9  0.000
  10 0.000
END PERIOD 1
