BEGIN OPTIONS
END OPTIONS

BEGIN TIMING
  TDIS6 flow.tdis
END TIMING

BEGIN MODELS
  #modeltype      namefile      modelname
         GWF6      flow.nam          GWF_1
END MODELS

BEGIN EXCHANGES
END EXCHANGES

BEGIN SOLUTIONGROUP 1
  MXITER 1
  IMS6 flow.ims GWF_1
END SOLUTIONGROUP
