BEGIN OPTIONS
  AUXILIARY  var1  var2  var3
  BOUNDNAMES
  PRINT_INPUT
  PRINT_FLOWS
  SAVE_FLOWS
  TS6  FILEIN  well_rates.ts
END OPTIONS

BEGIN DIMENSIONS
  MAXBOUND  5
END DIMENSIONS

BEGIN PERIOD  2
  1 12 3  -50.0  -1.0  -2.0  -3.0
  3 5 8  well_1_rate  1.0  2.0  3.0  well_1
  3 4 3  well_2_rate  4.0  5.0  6.0  well_2
END PERIOD  2

BEGIN PERIOD  3
  3 4 3  well_2_rate  1.0  2.0  3.0  well_2
  3 5 8  well_1_rate  4.0  5.0  6.0  well_1
END PERIOD  3

BEGIN PERIOD  4
  3 5 8  well_1_rate  1.0  2.0  3.0  well_1
  3 4 3  well_2_rate  4.0  5.0  6.0  well_2
  1 12 3  -10.0  7.0  8.0  9.0
  1 3 5  -20.0  17.0  18.0  19.0
  1 14 6  -40.0  27.0  28.0  29.0
END PERIOD  4

