BEGIN GRIDDATA
  strt  LAYERED
    CONSTANT  50.0
    CONSTANT  50.0
    CONSTANT  50.0
END GRIDDATA

