BEGIN OPTIONS
END OPTIONS

BEGIN DIMENSIONS
  NLAY  3
  NROW  15
  NCOL  10
END DIMENSIONS

BEGIN GRIDDATA
  delr
    CONSTANT  500.0
  delc
    CONSTANT  500.0
  top
    CONSTANT  50.0
  botm  LAYERED
  
    CONSTANT  5.0
	
    CONSTANT  -10.0
	
    CONSTANT  -100.0
	
END GRIDDATA

