BEGIN OPTIONS
  FIXED_CELL
  AUXILIARY  multiplier
  AUXMULTNAME  multiplier
  PRINT_INPUT
  PRINT_FLOWS
  SAVE_FLOWS
  TS6  FILEIN  recharge_rates_3.ts
END OPTIONS

BEGIN DIMENSIONS
  MAXBOUND  54
END DIMENSIONS

BEGIN PERIOD  1
  1 1 10  rch_3  0.5
  1 2 9  rch_3  0.5
  1 2 10  rch_3  1.0
  1 3 8  rch_3  0.5
  1 3 9  rch_3  1.0
  1 3 10  rch_3  1.0
  1 4 7  rch_3  0.5
  1 4 8  rch_3  1.0
  1 4 9  rch_3  1.0
  1 4 10  rch_3  1.0
  1 5 7  rch_3  1.0
  1 5 8  rch_3  1.0
  1 5 9  rch_3  1.0
  1 5 10  rch_3  1.0
  1 6 7  rch_3  1.0
  1 6 8  rch_3  1.0
  1 6 9  rch_3  1.0
  1 6 10  rch_3  1.0
  1 7 7  rch_3  1.0
  1 7 8  rch_3  1.0
  1 7 9  rch_3  1.0
  1 7 10  rch_3  1.0
  1 8 7  rch_3  1.0
  1 8 8  rch_3  1.0
  1 8 9  rch_3  1.0
  1 8 10  rch_3  1.0
  1 9 7  rch_3  1.0
  1 9 8  rch_3  1.0
  1 9 9  rch_3  1.0
  1 9 10  rch_3  1.0
  1 10 7  rch_3  1.0
  1 10 8  rch_3  1.0
  1 10 9  rch_3  1.0
  1 10 10  rch_3  1.0
  1 11 7  rch_3  1.0
  1 11 8  rch_3  1.0
  1 11 9  rch_3  1.0
  1 11 10  rch_3  1.0
  1 12 7  rch_3  1.0
  1 12 8  rch_3  1.0
  1 12 9  rch_3  1.0
  1 12 10  rch_3  1.0
  1 13 7  rch_3  1.0
  1 13 8  rch_3  1.0
  1 13 9  rch_3  1.0
  1 13 10  rch_3  1.0
  1 14 7  rch_3  1.0
  1 14 8  rch_3  1.0
  1 14 9  rch_3  1.0
  1 14 10  rch_3  1.0
  1 15 7  rch_3  1.0
  1 15 8  rch_3  1.0
  1 15 9  rch_3  1.0
  1 15 10  rch_3  1.0
END PERIOD  1

