BEGIN OPTIONS
  SAVE_FLOWS
END OPTIONS

BEGIN GRIDDATA
  iconvert
    CONSTANT  1
  ss
    CONSTANT  1E-06
  sy
    CONSTANT  0.2
END GRIDDATA

BEGIN PERIOD  1
  STEADY-STATE
END PERIOD  1

BEGIN PERIOD  2
  TRANSIENT
END PERIOD  2

