BEGIN OPTIONS
  DIGITS  10
  PRINT_INPUT
END OPTIONS

BEGIN CONTINUOUS  FILEOUT  riv_flowsA.csv
  riv1-3-1  riv  1 3 1
  riv1-4-2  riv  1 4 2
  riv1-5-3  riv  1 5 3
END CONTINUOUS  FILEOUT  riv_flowsA.csv

