BEGIN options
  BOUNDNAMES
  PRINT_INPUT
  PRINT_FLOWS
  SAVE_FLOWS
  TS6  FILEIN  river_stages.ts
  OBS6  FILEIN  advgw_tidal.riv.obs
END options

BEGIN dimensions
  MAXBOUND  20
END dimensions

BEGIN period  1
  1 3 1  river_stage_1  1001.0  35.9
  1 4 2  river_stage_1  1002.0  35.8
  1 5 3  river_stage_1  1003.0  35.7
  1 5 4  river_stage_1  1004.0  35.6
  1 6 5  river_stage_1  1005.0  35.5
  1 6 6  river_stage_1  1006.0  35.4  riv1_c6
  1 6 7  river_stage_1  1007.0  35.3  riv1_c7
  1 5 8  river_stage_1  1008.0  35.2
  1 5 9  river_stage_1  1009.0  35.1
  1 5 10  river_stage_1  1010.0  35.0
  1 10 1  river_stage_2  1001.0  36.9  riv2_upper
  1 9 2  river_stage_2  1002.0  36.8  riv2_upper
  1 8 3  river_stage_2  1003.0  36.7  riv2_upper
  1 7 4  river_stage_2  1004.0  36.6
  1 7 5  river_stage_2  1005.0  36.5
  1 6 6  river_stage_2  1006.0  36.4  riv2_c6
  1 6 7  river_stage_2  1007.0  36.3  riv2_c7
  1 7 8  river_stage_2  1008.0  36.2
  1 7 9  river_stage_2  1009.0  36.1
  1 7 10  river_stage_2  1010.0  36.0
END period  1

