BEGIN OPTIONS
  PRINT_INPUT
  PRINT_FLOWS
  SAVE_FLOWS
END OPTIONS

BEGIN DIMENSIONS
  MAXBOUND  150
  NSEG  3
END DIMENSIONS

BEGIN PERIOD  1
  1 1 1  50.0  0.0004  10.0  0.2  0.5  0.3  0.1
  1 1 2  50.0  0.0004  10.0  0.2  0.5  0.3  0.1
  1 1 3  50.0  0.0004  10.0  0.2  0.5  0.3  0.1
  1 1 4  50.0  0.0004  10.0  0.2  0.5  0.3  0.1
  1 1 5  50.0  0.0004  10.0  0.2  0.5  0.3  0.1
  1 1 6  50.0  0.0004  10.0  0.2  0.5  0.3  0.1
  1 1 7  50.0  0.0004  10.0  0.2  0.5  0.3  0.1
  1 1 8  50.0  0.0004  10.0  0.2  0.5  0.3  0.1
  1 1 9  50.0  0.0004  10.0  0.2  0.5  0.3  0.1
  1 1 10  50.0  0.0004  10.0  0.2  0.5  0.3  0.1
  1 2 1  50.0  0.0004  10.0  0.2  0.5  0.3  0.1
  1 2 2  50.0  0.0004  10.0  0.2  0.5  0.3  0.1
  1 2 3  50.0  0.0004  10.0  0.2  0.5  0.3  0.1
  1 2 4  50.0  0.0004  10.0  0.2  0.5  0.3  0.1
  1 2 5  50.0  0.0004  10.0  0.2  0.5  0.3  0.1
  1 2 6  50.0  0.0004  10.0  0.2  0.5  0.3  0.1
  1 2 7  50.0  0.0004  10.0  0.2  0.5  0.3  0.1
  1 2 8  50.0  0.0004  10.0  0.2  0.5  0.3  0.1
  1 2 9  50.0  0.0004  10.0  0.2  0.5  0.3  0.1
  1 2 10  50.0  0.0004  10.0  0.2  0.5  0.3  0.1
  1 3 1  50.0  0.0004  10.0  0.2  0.5  0.3  0.1
  1 3 2  50.0  0.0004  10.0  0.2  0.5  0.3  0.1
  1 3 3  50.0  0.0004  10.0  0.2  0.5  0.3  0.1
  1 3 4  50.0  0.0004  10.0  0.2  0.5  0.3  0.1
  1 3 5  50.0  0.0004  10.0  0.2  0.5  0.3  0.1
  1 3 6  50.0  0.0004  10.0  0.2  0.5  0.3  0.1
  1 3 7  50.0  0.0004  10.0  0.2  0.5  0.3  0.1
  1 3 8  50.0  0.0004  10.0  0.2  0.5  0.3  0.1
  1 3 9  50.0  0.0004  10.0  0.2  0.5  0.3  0.1
  1 3 10  50.0  0.0004  10.0  0.2  0.5  0.3  0.1
  1 4 1  50.0  0.0004  10.0  0.2  0.5  0.3  0.1
  1 4 2  50.0  0.0004  10.0  0.2  0.5  0.3  0.1
  1 4 3  50.0  0.0004  10.0  0.2  0.5  0.3  0.1
  1 4 4  50.0  0.0004  10.0  0.2  0.5  0.3  0.1
  1 4 5  50.0  0.0004  10.0  0.2  0.5  0.3  0.1
  1 4 6  50.0  0.0004  10.0  0.2  0.5  0.3  0.1
  1 4 7  50.0  0.0004  10.0  0.2  0.5  0.3  0.1
  1 4 8  50.0  0.0004  10.0  0.2  0.5  0.3  0.1
  1 4 9  50.0  0.0004  10.0  0.2  0.5  0.3  0.1
  1 4 10  50.0  0.0004  10.0  0.2  0.5  0.3  0.1
  1 5 1  50.0  0.0004  10.0  0.2  0.5  0.3  0.1
  1 5 2  50.0  0.0004  10.0  0.2  0.5  0.3  0.1
  1 5 3  50.0  0.0004  10.0  0.2  0.5  0.3  0.1
  1 5 4  50.0  0.0004  10.0  0.2  0.5  0.3  0.1
  1 5 5  50.0  0.0004  10.0  0.2  0.5  0.3  0.1
  1 5 6  50.0  0.0004  10.0  0.2  0.5  0.3  0.1
  1 5 7  50.0  0.0004  10.0  0.2  0.5  0.3  0.1
  1 5 8  50.0  0.0004  10.0  0.2  0.5  0.3  0.1
  1 5 9  50.0  0.0004  10.0  0.2  0.5  0.3  0.1
  1 5 10  50.0  0.0004  10.0  0.2  0.5  0.3  0.1
  1 6 1  50.0  0.0004  10.0  0.2  0.5  0.3  0.1
  1 6 2  50.0  0.0004  10.0  0.2  0.5  0.3  0.1
  1 6 3  50.0  0.0004  10.0  0.2  0.5  0.3  0.1
  1 6 4  50.0  0.0004  10.0  0.2  0.5  0.3  0.1
  1 6 5  50.0  0.0004  10.0  0.2  0.5  0.3  0.1
  1 6 6  50.0  0.0004  10.0  0.2  0.5  0.3  0.1
  1 6 7  50.0  0.0004  10.0  0.2  0.5  0.3  0.1
  1 6 8  50.0  0.0004  10.0  0.2  0.5  0.3  0.1
  1 6 9  50.0  0.0004  10.0  0.2  0.5  0.3  0.1
  1 6 10  50.0  0.0004  10.0  0.2  0.5  0.3  0.1
  1 7 1  50.0  0.0004  10.0  0.2  0.5  0.3  0.1
  1 7 2  50.0  0.0004  10.0  0.2  0.5  0.3  0.1
  1 7 3  50.0  0.0004  10.0  0.2  0.5  0.3  0.1
  1 7 4  50.0  0.0004  10.0  0.2  0.5  0.3  0.1
  1 7 5  50.0  0.0004  10.0  0.2  0.5  0.3  0.1
  1 7 6  50.0  0.0004  10.0  0.2  0.5  0.3  0.1
  1 7 7  50.0  0.0004  10.0  0.2  0.5  0.3  0.1
  1 7 8  50.0  0.0004  10.0  0.2  0.5  0.3  0.1
  1 7 9  50.0  0.0004  10.0  0.2  0.5  0.3  0.1
  1 7 10  50.0  0.0004  10.0  0.2  0.5  0.3  0.1
  1 8 1  50.0  0.0004  10.0  0.2  0.5  0.3  0.1
  1 8 2  50.0  0.0004  10.0  0.2  0.5  0.3  0.1
  1 8 3  50.0  0.0004  10.0  0.2  0.5  0.3  0.1
  1 8 4  50.0  0.0004  10.0  0.2  0.5  0.3  0.1
  1 8 5  50.0  0.0004  10.0  0.2  0.5  0.3  0.1
  1 8 6  50.0  0.0004  10.0  0.2  0.5  0.3  0.1
  1 8 7  50.0  0.0004  10.0  0.2  0.5  0.3  0.1
  1 8 8  50.0  0.0004  10.0  0.2  0.5  0.3  0.1
  1 8 9  50.0  0.0004  10.0  0.2  0.5  0.3  0.1
  1 8 10  50.0  0.0004  10.0  0.2  0.5  0.3  0.1
  1 9 1  50.0  0.0004  10.0  0.2  0.5  0.3  0.1
  1 9 2  50.0  0.0004  10.0  0.2  0.5  0.3  0.1
  1 9 3  50.0  0.0004  10.0  0.2  0.5  0.3  0.1
  1 9 4  50.0  0.0004  10.0  0.2  0.5  0.3  0.1
  1 9 5  50.0  0.0004  10.0  0.2  0.5  0.3  0.1
  1 9 6  50.0  0.0004  10.0  0.2  0.5  0.3  0.1
  1 9 7  50.0  0.0004  10.0  0.2  0.5  0.3  0.1
  1 9 8  50.0  0.0004  10.0  0.2  0.5  0.3  0.1
  1 9 9  50.0  0.0004  10.0  0.2  0.5  0.3  0.1
  1 9 10  50.0  0.0004  10.0  0.2  0.5  0.3  0.1
  1 10 1  50.0  0.0004  10.0  0.2  0.5  0.3  0.1
  1 10 2  50.0  0.0004  10.0  0.2  0.5  0.3  0.1
  1 10 3  50.0  0.0004  10.0  0.2  0.5  0.3  0.1
  1 10 4  50.0  0.0004  10.0  0.2  0.5  0.3  0.1
  1 10 5  50.0  0.0004  10.0  0.2  0.5  0.3  0.1
  1 10 6  50.0  0.0004  10.0  0.2  0.5  0.3  0.1
  1 10 7  50.0  0.0004  10.0  0.2  0.5  0.3  0.1
  1 10 8  50.0  0.0004  10.0  0.2  0.5  0.3  0.1
  1 10 9  50.0  0.0004  10.0  0.2  0.5  0.3  0.1
  1 10 10  50.0  0.0004  10.0  0.2  0.5  0.3  0.1
  1 11 1  50.0  0.0004  10.0  0.2  0.5  0.3  0.1
  1 11 2  50.0  0.0004  10.0  0.2  0.5  0.3  0.1
  1 11 3  50.0  0.0004  10.0  0.2  0.5  0.3  0.1
  1 11 4  50.0  0.0004  10.0  0.2  0.5  0.3  0.1
  1 11 5  50.0  0.0004  10.0  0.2  0.5  0.3  0.1
  1 11 6  50.0  0.0004  10.0  0.2  0.5  0.3  0.1
  1 11 7  50.0  0.0004  10.0  0.2  0.5  0.3  0.1
  1 11 8  50.0  0.0004  10.0  0.2  0.5  0.3  0.1
  1 11 9  50.0  0.0004  10.0  0.2  0.5  0.3  0.1
  1 11 10  50.0  0.0004  10.0  0.2  0.5  0.3  0.1
  1 12 1  50.0  0.0004  10.0  0.2  0.5  0.3  0.1
  1 12 2  50.0  0.0004  10.0  0.2  0.5  0.3  0.1
  1 12 3  50.0  0.0004  10.0  0.2  0.5  0.3  0.1
  1 12 4  50.0  0.0004  10.0  0.2  0.5  0.3  0.1
  1 12 5  50.0  0.0004  10.0  0.2  0.5  0.3  0.1
  1 12 6  50.0  0.0004  10.0  0.2  0.5  0.3  0.1
  1 12 7  50.0  0.0004  10.0  0.2  0.5  0.3  0.1
  1 12 8  50.0  0.0004  10.0  0.2  0.5  0.3  0.1
  1 12 9  50.0  0.0004  10.0  0.2  0.5  0.3  0.1
  1 12 10  50.0  0.0004  10.0  0.2  0.5  0.3  0.1
  1 13 1  50.0  0.0004  10.0  0.2  0.5  0.3  0.1
  1 13 2  50.0  0.0004  10.0  0.2  0.5  0.3  0.1
  1 13 3  50.0  0.0004  10.0  0.2  0.5  0.3  0.1
  1 13 4  50.0  0.0004  10.0  0.2  0.5  0.3  0.1
  1 13 5  50.0  0.0004  10.0  0.2  0.5  0.3  0.1
  1 13 6  50.0  0.0004  10.0  0.2  0.5  0.3  0.1
  1 13 7  50.0  0.0004  10.0  0.2  0.5  0.3  0.1
  1 13 8  50.0  0.0004  10.0  0.2  0.5  0.3  0.1
  1 13 9  50.0  0.0004  10.0  0.2  0.5  0.3  0.1
  1 13 10  50.0  0.0004  10.0  0.2  0.5  0.3  0.1
  1 14 1  50.0  0.0004  10.0  0.2  0.5  0.3  0.1
  1 14 2  50.0  0.0004  10.0  0.2  0.5  0.3  0.1
  1 14 3  50.0  0.0004  10.0  0.2  0.5  0.3  0.1
  1 14 4  50.0  0.0004  10.0  0.2  0.5  0.3  0.1
  1 14 5  50.0  0.0004  10.0  0.2  0.5  0.3  0.1
  1 14 6  50.0  0.0004  10.0  0.2  0.5  0.3  0.1
  1 14 7  50.0  0.0004  10.0  0.2  0.5  0.3  0.1
  1 14 8  50.0  0.0004  10.0  0.2  0.5  0.3  0.1
  1 14 9  50.0  0.0004  10.0  0.2  0.5  0.3  0.1
  1 14 10  50.0  0.0004  10.0  0.2  0.5  0.3  0.1
  1 15 1  50.0  0.0004  10.0  0.2  0.5  0.3  0.1
  1 15 2  50.0  0.0004  10.0  0.2  0.5  0.3  0.1
  1 15 3  50.0  0.0004  10.0  0.2  0.5  0.3  0.1
  1 15 4  50.0  0.0004  10.0  0.2  0.5  0.3  0.1
  1 15 5  50.0  0.0004  10.0  0.2  0.5  0.3  0.1
  1 15 6  50.0  0.0004  10.0  0.2  0.5  0.3  0.1
  1 15 7  50.0  0.0004  10.0  0.2  0.5  0.3  0.1
  1 15 8  50.0  0.0004  10.0  0.2  0.5  0.3  0.1
  1 15 9  50.0  0.0004  10.0  0.2  0.5  0.3  0.1
  1 15 10  50.0  0.0004  10.0  0.2  0.5  0.3  0.1
END PERIOD  1

