BEGIN OPTIONS
END OPTIONS

BEGIN PACKAGES
  IC6  AdvGW_tidal.ic
  NPF6  AdvGW_tidal.npf
  WEL6  AdvGW_tidal.wel  wel  character limit)
  RIV6  AdvGW_tidal.riv  riv
  RCH6  AdvGW_tidal_1.rch  rch-zone_1
  RCH6  AdvGW_tidal_2.rch  rch-zone_2
  RCH6  AdvGW_tidal_3.rch  rch-zone_3
  OC6  AdvGW_tidal.oc
  DIS6  AdvGW_tidal.dis
  GHB6  AdvGW_tidal.ghb  ghb-tidal
  STO6  AdvGW_tidal.sto
  EVT6  AdvGW_tidal.evt  evt
  OBS6  AdvGW_tidal.obs
END PACKAGES

