BEGIN OPTIONS
  FIXED_CELL
  AUXILIARY  multiplier
  AUXMULTNAME  multiplier
  PRINT_INPUT
  PRINT_FLOWS
  SAVE_FLOWS
  TS6  FILEIN  recharge_rates_2.ts
END OPTIONS

BEGIN DIMENSIONS
  MAXBOUND  20
END DIMENSIONS

BEGIN PERIOD  1
  1 1 3  rch_2  0.5
  1 1 4  rch_2  1.0
  1 1 5  rch_2  1.0
  1 1 6  rch_2  1.0
  1 1 7  rch_2  1.0
  1 1 8  rch_2  1.0
  1 1 9  rch_2  1.0
  1 1 10  rch_2  0.5
  1 2 4  rch_2  0.5
  1 2 5  rch_2  1.0
  1 2 6  rch_2  1.0
  1 2 7  rch_2  1.0
  1 2 8  rch_2  1.0
  1 2 9  rch_2  0.5
  1 3 5  rch_2  0.5
  1 3 6  rch_2  1.0
  1 3 7  rch_2  1.0
  1 3 8  rch_2  0.5
  1 4 6  rch_2  0.5
  1 4 7  rch_2  0.5
END PERIOD  1

