BEGIN OPTIONS
  SAVE_FLOWS
END OPTIONS

BEGIN GRIDDATA
  icelltype  LAYERED
    CONSTANT  1
    CONSTANT  0
    CONSTANT  0
  k  LAYERED
    CONSTANT  5.0
    CONSTANT  0.1
    CONSTANT  4.0
  k33  LAYERED
    CONSTANT  0.5
    CONSTANT  0.005
    CONSTANT  0.1
END GRIDDATA

