BEGIN OPTIONS
END OPTIONS

BEGIN TIMING
  TDIS6  simulation.tdis
END TIMING

BEGIN MODELS
  gwf6  advgw_tidal.nam  gwf_1
END MODELS

BEGIN EXCHANGES
END EXCHANGES

BEGIN SOLUTIONGROUP  1
  MXITER  1
  ims6  model.ims  gwf_1
END SOLUTIONGROUP  1

