BEGIN options
  PRINT_OPTION  summary
  COMPLEXITY  simple
END options

BEGIN nonlinear
  OUTER_HCLOSE  0.0001
  OUTER_MAXIMUM  500
  UNDER_RELAXATION  none
END nonlinear

BEGIN linear
  INNER_MAXIMUM  100
  INNER_HCLOSE  0.0001
  inner_rclose  0.001
  LINEAR_ACCELERATION  cg
  RELAXATION_FACTOR  0.97
  SCALING_METHOD  none
  REORDERING_METHOD  none
END linear

