BEGIN OPTIONS
  TIME_UNITS  days
END OPTIONS

BEGIN DIMENSIONS
  NPER  4
END DIMENSIONS

BEGIN PERIODDATA
  1.0  1  1.0  PERLEN,NSTP,TSMULT
  10.0  120  1.0
  10.0  120  1.0
  10.0  120  1.0
END PERIODDATA

