# MODFLOW2000 Layer Property Flow (LPF) Package
 50  -1.000000e+030 0
  1
  0
  1.000000e+000
 0
 0
        11   1.00000(10e12.4)                   -1     HYDRAULIC CONDUCTIVITY Layer   1
  1.4519e-04  1.4133e-04  1.4430e-04  1.1095e-04  1.1270e-04  1.1874e-04  1.0534e-04  1.1486e-04  1.2146e-04  1.0406e-04
  9.2500e-05  9.5371e-05  9.0973e-05  1.1631e-04  1.1230e-04  1.0606e-04  1.1380e-04  1.1453e-04  1.1209e-04  1.1072e-04
  1.4872e-04  1.4801e-04  1.0451e-04  1.1583e-04  1.0549e-04  1.1086e-04  1.0583e-04  1.1313e-04  1.1917e-04  9.8568e-05
  9.1953e-05  1.0080e-04  9.2377e-05  1.0490e-04  1.1925e-04  1.0757e-04  8.1616e-05  1.1389e-04  1.1712e-04  1.0178e-04
  1.4116e-04  1.5908e-04  1.0890e-04  1.1269e-04  1.1555e-04  1.1075e-04  1.0941e-04  1.1592e-04  1.0382e-04  8.9436e-05
  8.6446e-05  8.7584e-05  8.5877e-05  1.1916e-04  1.0532e-04  1.1370e-04  8.2323e-05  1.0666e-04  1.0996e-04  9.9535e-05
  1.0746e-04  9.3762e-05  1.1554e-04  1.1843e-04  1.1296e-04  1.1367e-04  1.0777e-04  1.0783e-04  1.1037e-04  9.0274e-05
  8.5356e-05  9.4502e-05  9.3435e-05  1.0082e-04  9.8598e-05  8.1940e-05  8.5041e-05  1.1348e-04  1.0612e-04  1.0760e-04
  1.0801e-04  9.5925e-05  1.1101e-04  1.1341e-04  1.2172e-04  1.1192e-04  8.8969e-05  9.1672e-05  9.6538e-05  8.8196e-05
  9.5908e-05  9.5761e-05  8.8283e-05  1.0958e-04  1.0490e-04  7.6922e-05  8.7297e-05  1.0055e-04  1.1379e-04  1.0021e-04
  1.1054e-04  8.3095e-05  9.8526e-05  9.2557e-05  8.1495e-05  9.1777e-05  8.7956e-05  9.1969e-05  9.4312e-05  8.6512e-05
  8.7914e-05  9.1530e-05  9.4609e-05  1.1036e-04  9.8909e-05  8.6797e-05  9.4338e-05  1.0964e-04  1.0882e-04  1.0123e-04
  1.1299e-04  9.2286e-05  9.2851e-05  8.1656e-05  7.9373e-05  8.9353e-05  8.7365e-05  8.7279e-05  9.0789e-05  9.2645e-05
  7.1984e-05  8.0928e-05  8.8145e-05  8.7979e-05  8.0673e-05  9.4433e-05  9.5942e-05  8.9335e-05  8.8623e-05  1.1476e-04
  1.0904e-04  8.9934e-05  9.4232e-05  1.1361e-04  1.0925e-04  1.0873e-04  1.1250e-04  8.0011e-05  8.6955e-05  8.6395e-05
  6.7432e-05  8.4388e-05  9.7283e-05  9.1135e-05  9.1687e-05  9.9609e-05  8.1053e-05  8.4300e-05  9.7756e-05  1.0835e-04
  1.1825e-04  8.3602e-05  8.8391e-05  1.1790e-04  0.0000e+00  0.0000e+00  0.0000e+00  1.0816e-04  9.0249e-05  8.4678e-05
  6.4335e-05  8.6046e-05  8.6168e-05  9.0632e-05  9.1142e-05  8.9446e-05  8.4333e-05  9.7260e-05  9.0651e-05  1.1732e-04
  1.0794e-04  9.4846e-05  9.1230e-05  1.0824e-04  0.0000e+00  0.0000e+00  0.0000e+00  0.0000e+00  1.1618e-04  8.4621e-05
  7.4679e-05  8.4881e-05  8.2917e-05  8.7025e-05  9.1894e-05  9.3444e-05  1.0041e-04  8.8884e-05  9.4005e-05  1.1406e-04
  1.1682e-04  8.4325e-05  8.4238e-05  1.0143e-04  0.0000e+00  0.0000e+00  0.0000e+00  0.0000e+00  1.0418e-04  9.0842e-05
  6.0822e-05  6.3944e-05  6.9054e-05  8.7967e-05  9.2158e-05  8.0290e-05  9.3148e-05  7.7120e-05  9.2821e-05  8.3649e-05
  1.1720e-04  9.5522e-05  8.8707e-05  1.0090e-04  0.0000e+00  0.0000e+00  0.0000e+00  0.0000e+00  1.0904e-04  9.0023e-05
  7.3492e-05  7.5445e-05  6.9703e-05  8.0582e-05  9.3026e-05  6.2411e-05  1.0441e-04  8.1632e-05  9.1962e-05  1.0326e-04
  1.0711e-04  9.6756e-05  8.6163e-05  1.0725e-04  0.0000e+00  0.0000e+00  0.0000e+00  0.0000e+00  1.1079e-04  8.9971e-05
  6.1131e-05  9.2624e-05  8.3422e-05  9.4859e-05  9.1323e-05  8.8779e-05  8.4896e-05  9.1698e-05  8.0821e-05  8.5484e-05
  1.0850e-04  8.7752e-05  8.1362e-05  1.1820e-04  0.0000e+00  0.0000e+00  0.0000e+00  0.0000e+00  1.0379e-04  8.7686e-05
  7.0353e-05  6.8921e-05  6.6020e-05  9.1458e-05  9.9829e-05  7.8521e-05  9.7106e-05  8.6929e-05  9.9466e-05  8.6965e-05
  1.1011e-04  8.5807e-05  8.7168e-05  1.2059e-04  0.0000e+00  0.0000e+00  0.0000e+00  0.0000e+00  8.8618e-05  8.4750e-05
  5.6106e-05  7.5222e-05  7.1627e-05  6.9635e-05  6.9698e-05  7.3190e-05  7.0016e-05  8.2969e-05  8.8915e-05  1.1788e-04
  1.0336e-04  9.1925e-05  9.2468e-05  1.0528e-04  0.0000e+00  0.0000e+00  0.0000e+00  0.0000e+00  8.8415e-05  6.7298e-05
  4.7462e-05  6.5726e-05  7.2786e-05  6.9951e-05  7.1939e-05  6.7826e-05  7.6875e-05  9.4538e-05  9.3703e-05  1.0538e-04
  1.1538e-04  9.1526e-05  9.1657e-05  1.1229e-04  0.0000e+00  0.0000e+00  0.0000e+00  0.0000e+00  8.0591e-05  7.3164e-05
  4.8657e-05  7.5407e-05  7.1521e-05  7.2492e-05  6.7225e-05  6.2568e-05  6.5337e-05  8.9570e-05  9.0378e-05  1.1846e-04
  1.0890e-04  8.3832e-05  9.5291e-05  1.0301e-04  0.0000e+00  0.0000e+00  0.0000e+00  0.0000e+00  8.2549e-05  7.7325e-05
  5.2625e-05  5.6833e-05  7.3047e-05  7.1842e-05  7.3694e-05  7.6733e-05  7.2683e-05  8.5744e-05  8.9075e-05  1.1263e-04
  1.0916e-04  9.2971e-05  9.4729e-05  1.0387e-04  0.0000e+00  0.0000e+00  0.0000e+00  0.0000e+00  8.1593e-05  6.4889e-05
  5.4538e-05  4.0629e-05  5.9753e-05  7.0713e-05  7.5479e-05  7.5960e-05  6.7998e-05  8.8101e-05  1.0071e-04  1.1144e-04
  1.0971e-04  9.2156e-05  8.3783e-05  1.1144e-04  0.0000e+00  0.0000e+00  0.0000e+00  0.0000e+00  9.7846e-05  7.4218e-05
  4.7771e-05  4.4970e-05  5.9239e-05  7.0118e-05  6.9939e-05  7.5916e-05  6.8927e-05  8.7802e-05  8.7225e-05  1.1198e-04
  1.1563e-04  8.4280e-05  9.1334e-05  1.2205e-04  0.0000e+00  0.0000e+00  0.0000e+00  0.0000e+00  8.9710e-05  6.9535e-05
  4.9978e-05  5.1991e-05  3.8217e-05  7.9127e-05  6.9971e-05  6.8921e-05  6.7217e-05  8.0283e-05  8.2854e-05  1.0893e-04
  1.1067e-04  9.0779e-05  9.6327e-05  1.1647e-04  0.0000e+00  0.0000e+00  1.1313e-04  1.1042e-04  8.9089e-05  7.1102e-05
  5.1240e-05  4.1288e-05  4.8677e-05  6.8856e-05  7.2503e-05  6.6003e-05  7.1811e-05  9.4308e-05  8.8201e-05  1.0326e-04
  1.0638e-04  9.1123e-05  8.2815e-05  1.1494e-04  1.0909e-04  0.0000e+00  1.1341e-04  8.3929e-05  8.6367e-05  6.7336e-05
  4.7795e-05  4.5199e-05  3.9006e-05  7.6617e-05  7.0801e-05  7.3657e-05  5.3390e-05  7.7600e-05  8.6802e-05  1.0948e-04
  1.1354e-04  9.5361e-05  8.7287e-05  8.8395e-05  1.0278e-04  1.1000e-04  9.7376e-05  8.4717e-05  9.9171e-05  7.2117e-05
  5.0651e-05  5.2520e-05  4.6987e-05  7.2796e-05  7.4366e-05  5.1577e-05  7.5595e-05  6.9359e-05  9.5135e-05  8.9246e-05
  1.1324e-04  9.2068e-05  9.1696e-05  9.2643e-05  9.1847e-05  9.0922e-05  8.9163e-05  8.3142e-05  6.5172e-05  7.7334e-05
  5.2680e-05  5.1423e-05  4.1563e-05  6.7371e-05  7.6383e-05  4.7639e-05  7.1104e-05  7.5812e-05  9.3540e-05  9.4096e-05
  1.1422e-04  9.1248e-05  9.5919e-05  6.7356e-05  9.1177e-05  8.4514e-05  8.9231e-05  9.4962e-05  6.9486e-05  7.0017e-05
  4.8127e-05  4.9474e-05  4.7601e-05  7.7646e-05  7.5471e-05  4.8005e-05  7.7294e-05  7.8978e-05  9.4411e-05  8.8448e-05
  1.1750e-04  8.3789e-05  9.9090e-05  9.1667e-05  6.6395e-05  8.7452e-05  8.9907e-05  6.5069e-05  6.8746e-05  5.2196e-05
  1.7188e-05  5.3547e-05  4.6130e-05  4.9050e-05  4.9852e-05  4.5186e-05  6.1880e-05  6.2675e-05  7.2981e-05  9.4912e-05
  1.0121e-04  1.0749e-04  8.3865e-05  8.8732e-05  9.2318e-05  8.3038e-05  6.1068e-05  5.4771e-05  6.8963e-05  3.9493e-05
  3.9971e-05  4.8827e-05  5.0589e-05  4.6833e-05  4.8995e-05  4.5298e-05  5.2202e-05  7.0280e-05  7.1851e-05  7.9058e-05
  1.0479e-04  1.1048e-04  9.0929e-05  9.0438e-05  9.6687e-05  7.3544e-05  5.6558e-05  1.3291e-05  6.9569e-05  6.1097e-05
  3.2518e-05  5.4427e-05  5.2243e-05  4.2881e-05  5.4275e-05  2.6927e-05  4.6776e-05  4.8508e-05  7.3863e-05  7.7007e-05
  1.0231e-04  1.1665e-04  9.7414e-05  9.7818e-05  9.9905e-05  7.6118e-05  1.5903e-05  1.8632e-05  1.5605e-05  3.3112e-05
  2.4920e-05  4.9826e-05  5.4471e-05  4.7016e-05  5.0789e-05  2.7186e-05  3.7544e-05  5.0323e-05  5.1742e-05  6.0367e-05
  1.1081e-04  8.5252e-05  8.5159e-05  9.2173e-05  7.2564e-05  3.9214e-05  2.9588e-05  1.9679e-05  3.2871e-05  2.4727e-05
  3.1276e-05  4.8333e-05  5.4999e-05  5.0009e-05  3.3352e-05  1.6198e-05  2.6468e-05  2.0913e-05  4.6282e-05  4.8252e-05
  1.0927e-04  8.6221e-05  8.7046e-05  9.0613e-05  9.6167e-05  6.6296e-05  8.7105e-06  2.7710e-05  2.8692e-05  3.5790e-05
  2.6652e-05  3.3906e-05  5.4819e-05  5.3427e-05  1.8368e-05  1.8581e-05  2.4460e-05  2.1743e-05  5.1845e-05  5.7560e-05
  0.0000e+00  9.1168e-05  8.8311e-05  8.9662e-05  8.8188e-05  8.5993e-05  6.8958e-05  4.7757e-05  4.0155e-06  2.6535e-05
  2.4615e-05  2.0088e-05  1.8464e-05  5.9978e-05  5.0322e-05  4.5190e-05  2.5805e-05  4.5699e-05  4.7711e-05  7.5000e-05
  0.0000e+00  0.0000e+00  8.1420e-05  8.9537e-05  9.7629e-05  6.5551e-05  7.1294e-05  5.2722e-05  3.9388e-05  3.8161e-05
  2.4906e-05  2.5367e-05  1.7740e-05  5.1189e-05  4.3841e-05  5.0900e-05  4.2575e-05  5.7366e-05  6.6453e-05  9.0433e-05
  0.0000e+00  0.0000e+00  0.0000e+00  6.6183e-05  7.6446e-05  6.4644e-05  6.0972e-05  7.7392e-05  4.0153e-05  2.6303e-05
  2.2206e-05  1.4376e-05  3.8817e-05  4.5784e-05  4.8904e-05  5.3954e-05  4.9559e-05  4.6416e-05  7.6744e-05  8.8537e-05
  0.0000e+00  0.0000e+00  0.0000e+00  0.0000e+00  7.4487e-05  7.4167e-05  7.1272e-05  5.2367e-05  4.8857e-05  1.5887e-05
  2.5459e-05  2.1132e-05  2.6919e-05  5.3746e-05  4.9682e-05  4.6821e-05  4.7121e-05  6.6739e-05  1.0134e-04  0.0000e+00
  0.0000e+00  0.0000e+00  0.0000e+00  0.0000e+00  8.7203e-05  7.1744e-05  6.4737e-05  5.4136e-05  5.1360e-05  2.5884e-05
  2.6277e-05  2.9699e-05  2.0331e-05  5.1653e-05  4.0941e-05  5.0952e-05  7.4337e-05  7.1120e-05  8.8050e-05  0.0000e+00
  0.0000e+00  0.0000e+00  0.0000e+00  0.0000e+00  0.0000e+00  7.4433e-05  6.8980e-05  4.7815e-05  6.2181e-05  1.5906e-05
  2.0391e-05  2.7183e-05  1.7266e-05  2.0832e-05  2.8546e-05  5.4538e-05  5.0747e-05  6.3092e-05  0.0000e+00  0.0000e+00
  0.0000e+00  0.0000e+00  0.0000e+00  0.0000e+00  0.0000e+00  6.8794e-05  7.8753e-05  6.5341e-05  5.2581e-05  2.3315e-05
  2.4392e-05  2.9250e-05  2.7525e-05  1.7968e-05  3.2661e-05  4.2436e-05  6.3425e-05  0.0000e+00  0.0000e+00  0.0000e+00
  0.0000e+00  0.0000e+00  0.0000e+00  0.0000e+00  0.0000e+00  9.4751e-05  5.3151e-05  5.1087e-05  2.6390e-05  2.8625e-05
  2.3886e-05  1.6100e-05  1.7895e-05  1.5188e-05  4.6163e-05  0.0000e+00  0.0000e+00  0.0000e+00  0.0000e+00  0.0000e+00
        11   1.00000(10e12.4)                   -1     VERTICAL HYDRAULIC CONDUCTIVITY Layer   1
  1.4519e-04  1.4133e-04  1.4430e-04  1.1095e-04  1.1270e-04  1.1874e-04  1.0534e-04  1.1486e-04  1.2146e-04  1.0406e-04
  9.2500e-05  9.5371e-05  9.0973e-05  1.1631e-04  1.1230e-04  1.0606e-04  1.1380e-04  1.1453e-04  1.1209e-04  1.1072e-04
  1.4872e-04  1.4801e-04  1.0451e-04  1.1583e-04  1.0549e-04  1.1086e-04  1.0583e-04  1.1313e-04  1.1917e-04  9.8568e-05
  9.1953e-05  1.0080e-04  9.2377e-05  1.0490e-04  1.1925e-04  1.0757e-04  8.1616e-05  1.1389e-04  1.1712e-04  1.0178e-04
  1.4116e-04  1.5908e-04  1.0890e-04  1.1269e-04  1.1555e-04  1.1075e-04  1.0941e-04  1.1592e-04  1.0382e-04  8.9436e-05
  8.6446e-05  8.7584e-05  8.5877e-05  1.1916e-04  1.0532e-04  1.1370e-04  8.2323e-05  1.0666e-04  1.0996e-04  9.9535e-05
  1.0746e-04  9.3762e-05  1.1554e-04  1.1843e-04  1.1296e-04  1.1367e-04  1.0777e-04  1.0783e-04  1.1037e-04  9.0274e-05
  8.5356e-05  9.4502e-05  9.3435e-05  1.0082e-04  9.8598e-05  8.1940e-05  8.5041e-05  1.1348e-04  1.0612e-04  1.0760e-04
  1.0801e-04  9.5925e-05  1.1101e-04  1.1341e-04  1.2172e-04  1.1192e-04  8.8969e-05  9.1672e-05  9.6538e-05  8.8196e-05
  9.5908e-05  9.5761e-05  8.8283e-05  1.0958e-04  1.0490e-04  7.6922e-05  8.7297e-05  1.0055e-04  1.1379e-04  1.0021e-04
  1.1054e-04  8.3095e-05  9.8526e-05  9.2557e-05  8.1495e-05  9.1777e-05  8.7956e-05  9.1969e-05  9.4312e-05  8.6512e-05
  8.7914e-05  9.1530e-05  9.4609e-05  1.1036e-04  9.8909e-05  8.6797e-05  9.4338e-05  1.0964e-04  1.0882e-04  1.0123e-04
  1.1299e-04  9.2286e-05  9.2851e-05  8.1656e-05  7.9373e-05  8.9353e-05  8.7365e-05  8.7279e-05  9.0789e-05  9.2645e-05
  7.1984e-05  8.0928e-05  8.8145e-05  8.7979e-05  8.0673e-05  9.4433e-05  9.5942e-05  8.9335e-05  8.8623e-05  1.1476e-04
  1.0904e-04  8.9934e-05  9.4232e-05  1.1361e-04  1.0925e-04  1.0873e-04  1.1250e-04  8.0011e-05  8.6955e-05  8.6395e-05
  6.7432e-05  8.4388e-05  9.7283e-05  9.1135e-05  9.1687e-05  9.9609e-05  8.1053e-05  8.4300e-05  9.7756e-05  1.0835e-04
  1.1825e-04  8.3602e-05  8.8391e-05  1.1790e-04  0.0000e+00  0.0000e+00  0.0000e+00  1.0816e-04  9.0249e-05  8.4678e-05
  6.4335e-05  8.6046e-05  8.6168e-05  9.0632e-05  9.1142e-05  8.9446e-05  8.4333e-05  9.7260e-05  9.0651e-05  1.1732e-04
  1.0794e-04  9.4846e-05  9.1230e-05  1.0824e-04  0.0000e+00  0.0000e+00  0.0000e+00  0.0000e+00  1.1618e-04  8.4621e-05
  7.4679e-05  8.4881e-05  8.2917e-05  8.7025e-05  9.1894e-05  9.3444e-05  1.0041e-04  8.8884e-05  9.4005e-05  1.1406e-04
  1.1682e-04  8.4325e-05  8.4238e-05  1.0143e-04  0.0000e+00  0.0000e+00  0.0000e+00  0.0000e+00  1.0418e-04  9.0842e-05
  6.0822e-05  6.3944e-05  6.9054e-05  8.7967e-05  9.2158e-05  8.0290e-05  9.3148e-05  7.7120e-05  9.2821e-05  8.3649e-05
  1.1720e-04  9.5522e-05  8.8707e-05  1.0090e-04  0.0000e+00  0.0000e+00  0.0000e+00  0.0000e+00  1.0904e-04  9.0023e-05
  7.3492e-05  7.5445e-05  6.9703e-05  8.0582e-05  9.3026e-05  6.2411e-05  1.0441e-04  8.1632e-05  9.1962e-05  1.0326e-04
  1.0711e-04  9.6756e-05  8.6163e-05  1.0725e-04  0.0000e+00  0.0000e+00  0.0000e+00  0.0000e+00  1.1079e-04  8.9971e-05
  6.1131e-05  9.2624e-05  8.3422e-05  9.4859e-05  9.1323e-05  8.8779e-05  8.4896e-05  9.1698e-05  8.0821e-05  8.5484e-05
  1.0850e-04  8.7752e-05  8.1362e-05  1.1820e-04  0.0000e+00  0.0000e+00  0.0000e+00  0.0000e+00  1.0379e-04  8.7686e-05
  7.0353e-05  6.8921e-05  6.6020e-05  9.1458e-05  9.9829e-05  7.8521e-05  9.7106e-05  8.6929e-05  9.9466e-05  8.6965e-05
  1.1011e-04  8.5807e-05  8.7168e-05  1.2059e-04  0.0000e+00  0.0000e+00  0.0000e+00  0.0000e+00  8.8618e-05  8.4750e-05
  5.6106e-05  7.5222e-05  7.1627e-05  6.9635e-05  6.9698e-05  7.3190e-05  7.0016e-05  8.2969e-05  8.8915e-05  1.1788e-04
  1.0336e-04  9.1925e-05  9.2468e-05  1.0528e-04  0.0000e+00  0.0000e+00  0.0000e+00  0.0000e+00  8.8415e-05  6.7298e-05
  4.7462e-05  6.5726e-05  7.2786e-05  6.9951e-05  7.1939e-05  6.7826e-05  7.6875e-05  9.4538e-05  9.3703e-05  1.0538e-04
  1.1538e-04  9.1526e-05  9.1657e-05  1.1229e-04  0.0000e+00  0.0000e+00  0.0000e+00  0.0000e+00  8.0591e-05  7.3164e-05
  4.8657e-05  7.5407e-05  7.1521e-05  7.2492e-05  6.7225e-05  6.2568e-05  6.5337e-05  8.9570e-05  9.0378e-05  1.1846e-04
  1.0890e-04  8.3832e-05  9.5291e-05  1.0301e-04  0.0000e+00  0.0000e+00  0.0000e+00  0.0000e+00  8.2549e-05  7.7325e-05
  5.2625e-05  5.6833e-05  7.3047e-05  7.1842e-05  7.3694e-05  7.6733e-05  7.2683e-05  8.5744e-05  8.9075e-05  1.1263e-04
  1.0916e-04  9.2971e-05  9.4729e-05  1.0387e-04  0.0000e+00  0.0000e+00  0.0000e+00  0.0000e+00  8.1593e-05  6.4889e-05
  5.4538e-05  4.0629e-05  5.9753e-05  7.0713e-05  7.5479e-05  7.5960e-05  6.7998e-05  8.8101e-05  1.0071e-04  1.1144e-04
  1.0971e-04  9.2156e-05  8.3783e-05  1.1144e-04  0.0000e+00  0.0000e+00  0.0000e+00  0.0000e+00  9.7846e-05  7.4218e-05
  4.7771e-05  4.4970e-05  5.9239e-05  7.0118e-05  6.9939e-05  7.5916e-05  6.8927e-05  8.7802e-05  8.7225e-05  1.1198e-04
  1.1563e-04  8.4280e-05  9.1334e-05  1.2205e-04  0.0000e+00  0.0000e+00  0.0000e+00  0.0000e+00  8.9710e-05  6.9535e-05
  4.9978e-05  5.1991e-05  3.8217e-05  7.9127e-05  6.9971e-05  6.8921e-05  6.7217e-05  8.0283e-05  8.2854e-05  1.0893e-04
  1.1067e-04  9.0779e-05  9.6327e-05  1.1647e-04  0.0000e+00  0.0000e+00  1.1313e-04  1.1042e-04  8.9089e-05  7.1102e-05
  5.1240e-05  4.1288e-05  4.8677e-05  6.8856e-05  7.2503e-05  6.6003e-05  7.1811e-05  9.4308e-05  8.8201e-05  1.0326e-04
  1.0638e-04  9.1123e-05  8.2815e-05  1.1494e-04  1.0909e-04  0.0000e+00  1.1341e-04  8.3929e-05  8.6367e-05  6.7336e-05
  4.7795e-05  4.5199e-05  3.9006e-05  7.6617e-05  7.0801e-05  7.3657e-05  5.3390e-05  7.7600e-05  8.6802e-05  1.0948e-04
  1.1354e-04  9.5361e-05  8.7287e-05  8.8395e-05  1.0278e-04  1.1000e-04  9.7376e-05  8.4717e-05  9.9171e-05  7.2117e-05
  5.0651e-05  5.2520e-05  4.6987e-05  7.2796e-05  7.4366e-05  5.1577e-05  7.5595e-05  6.9359e-05  9.5135e-05  8.9246e-05
  1.1324e-04  9.2068e-05  9.1696e-05  9.2643e-05  9.1847e-05  9.0922e-05  8.9163e-05  8.3142e-05  6.5172e-05  7.7334e-05
  5.2680e-05  5.1423e-05  4.1563e-05  6.7371e-05  7.6383e-05  4.7639e-05  7.1104e-05  7.5812e-05  9.3540e-05  9.4096e-05
  1.1422e-04  9.1248e-05  9.5919e-05  6.7356e-05  9.1177e-05  8.4514e-05  8.9231e-05  9.4962e-05  6.9486e-05  7.0017e-05
  4.8127e-05  4.9474e-05  4.7601e-05  7.7646e-05  7.5471e-05  4.8005e-05  7.7294e-05  7.8978e-05  9.4411e-05  8.8448e-05
  1.1750e-04  8.3789e-05  9.9090e-05  9.1667e-05  6.6395e-05  8.7452e-05  8.9907e-05  6.5069e-05  6.8746e-05  5.2196e-05
  1.7188e-05  5.3547e-05  4.6130e-05  4.9050e-05  4.9852e-05  4.5186e-05  6.1880e-05  6.2675e-05  7.2981e-05  9.4912e-05
  1.0121e-04  1.0749e-04  8.3865e-05  8.8732e-05  9.2318e-05  8.3038e-05  6.1068e-05  5.4771e-05  6.8963e-05  3.9493e-05
  3.9971e-05  4.8827e-05  5.0589e-05  4.6833e-05  4.8995e-05  4.5298e-05  5.2202e-05  7.0280e-05  7.1851e-05  7.9058e-05
  1.0479e-04  1.1048e-04  9.0929e-05  9.0438e-05  9.6687e-05  7.3544e-05  5.6558e-05  1.3291e-05  6.9569e-05  6.1097e-05
  3.2518e-05  5.4427e-05  5.2243e-05  4.2881e-05  5.4275e-05  2.6927e-05  4.6776e-05  4.8508e-05  7.3863e-05  7.7007e-05
  1.0231e-04  1.1665e-04  9.7414e-05  9.7818e-05  9.9905e-05  7.6118e-05  1.5903e-05  1.8632e-05  1.5605e-05  3.3112e-05
  2.4920e-05  4.9826e-05  5.4471e-05  4.7016e-05  5.0789e-05  2.7186e-05  3.7544e-05  5.0323e-05  5.1742e-05  6.0367e-05
  1.1081e-04  8.5252e-05  8.5159e-05  9.2173e-05  7.2564e-05  3.9214e-05  2.9588e-05  1.9679e-05  3.2871e-05  2.4727e-05
  3.1276e-05  4.8333e-05  5.4999e-05  5.0009e-05  3.3352e-05  1.6198e-05  2.6468e-05  2.0913e-05  4.6282e-05  4.8252e-05
  1.0927e-04  8.6221e-05  8.7046e-05  9.0613e-05  9.6167e-05  6.6296e-05  8.7105e-06  2.7710e-05  2.8692e-05  3.5790e-05
  2.6652e-05  3.3906e-05  5.4819e-05  5.3427e-05  1.8368e-05  1.8581e-05  2.4460e-05  2.1743e-05  5.1845e-05  5.7560e-05
  0.0000e+00  9.1168e-05  8.8311e-05  8.9662e-05  8.8188e-05  8.5993e-05  6.8958e-05  4.7757e-05  4.0155e-06  2.6535e-05
  2.4615e-05  2.0088e-05  1.8464e-05  5.9978e-05  5.0322e-05  4.5190e-05  2.5805e-05  4.5699e-05  4.7711e-05  7.5000e-05
  0.0000e+00  0.0000e+00  8.1420e-05  8.9537e-05  9.7629e-05  6.5551e-05  7.1294e-05  5.2722e-05  3.9388e-05  3.8161e-05
  2.4906e-05  2.5367e-05  1.7740e-05  5.1189e-05  4.3841e-05  5.0900e-05  4.2575e-05  5.7366e-05  6.6453e-05  9.0433e-05
  0.0000e+00  0.0000e+00  0.0000e+00  6.6183e-05  7.6446e-05  6.4644e-05  6.0972e-05  7.7392e-05  4.0153e-05  2.6303e-05
  2.2206e-05  1.4376e-05  3.8817e-05  4.5784e-05  4.8904e-05  5.3954e-05  4.9559e-05  4.6416e-05  7.6744e-05  8.8537e-05
  0.0000e+00  0.0000e+00  0.0000e+00  0.0000e+00  7.4487e-05  7.4167e-05  7.1272e-05  5.2367e-05  4.8857e-05  1.5887e-05
  2.5459e-05  2.1132e-05  2.6919e-05  5.3746e-05  4.9682e-05  4.6821e-05  4.7121e-05  6.6739e-05  1.0134e-04  0.0000e+00
  0.0000e+00  0.0000e+00  0.0000e+00  0.0000e+00  8.7203e-05  7.1744e-05  6.4737e-05  5.4136e-05  5.1360e-05  2.5884e-05
  2.6277e-05  2.9699e-05  2.0331e-05  5.1653e-05  4.0941e-05  5.0952e-05  7.4337e-05  7.1120e-05  8.8050e-05  0.0000e+00
  0.0000e+00  0.0000e+00  0.0000e+00  0.0000e+00  0.0000e+00  7.4433e-05  6.8980e-05  4.7815e-05  6.2181e-05  1.5906e-05
  2.0391e-05  2.7183e-05  1.7266e-05  2.0832e-05  2.8546e-05  5.4538e-05  5.0747e-05  6.3092e-05  0.0000e+00  0.0000e+00
  0.0000e+00  0.0000e+00  0.0000e+00  0.0000e+00  0.0000e+00  6.8794e-05  7.8753e-05  6.5341e-05  5.2581e-05  2.3315e-05
  2.4392e-05  2.9250e-05  2.7525e-05  1.7968e-05  3.2661e-05  4.2436e-05  6.3425e-05  0.0000e+00  0.0000e+00  0.0000e+00
  0.0000e+00  0.0000e+00  0.0000e+00  0.0000e+00  0.0000e+00  9.4751e-05  5.3151e-05  5.1087e-05  2.6390e-05  2.8625e-05
  2.3886e-05  1.6100e-05  1.7895e-05  1.5188e-05  4.6163e-05  0.0000e+00  0.0000e+00  0.0000e+00  0.0000e+00  0.0000e+00
