# MODFLOW2000 Discretization File
 1  40  20  1  1  2
 0
         0  250.0000(10E16.8)                    0     DELTA-X or C
         0  250.0000(10E16.8)                    0     DELTA-Y or R
         0  35.00000(10e12.4)                   -1     TOP of Model
        29   1.00000(10e12.4)                   -1     BOTTOM of Layer   1
  1.7008e+01  1.8507e+01  1.8672e+01  1.5930e+01  1.3961e+01  1.4462e+01  8.0190e+00  1.0600e+01  8.8847e+00  7.2274e+00
  6.2511e+00  6.0061e+00  7.1143e+00  6.9039e+00  6.2443e+00  6.9450e+00  6.9855e+00  5.0310e+00  4.0061e+00  6.6584e+00
  1.9126e+01  1.7345e+01  1.8234e+01  1.3660e+01  1.3262e+01  1.3922e+01  1.0676e+01  9.9167e+00  1.1025e+01  6.4094e+00
  4.8782e+00  5.0843e+00  6.5321e+00  5.1773e+00  5.7181e+00  4.3329e+00  5.8867e+00  6.4356e+00  5.2941e+00  6.0503e+00
  1.7480e+01  1.8860e+01  1.8296e+01  1.2986e+01  1.3738e+01  1.4401e+01  9.2020e+00  1.1208e+01  8.3499e+00  8.5742e+00
  5.9810e+00  6.5199e+00  6.2453e+00  5.0066e+00  7.1720e+00  7.1635e+00  4.5908e+00  5.1325e+00  5.0524e+00  6.8011e+00
  1.7970e+01  1.8897e+01  1.9313e+01  1.4862e+01  1.3321e+01  1.5768e+01  1.1466e+01  8.7568e+00  1.2328e+01  7.0550e+00
  3.0590e+00  2.8243e+00  2.2451e+00  2.9858e+00  3.1909e+00  2.2319e+00  7.7850e+00  4.9555e+00  6.3389e+00  6.4755e+00
  1.8911e+01  1.8045e+01  1.6995e+01  1.4881e+01  1.5212e+01  1.3754e+01  8.6911e+00  1.4635e+01  1.0045e+01  4.7893e+00
  3.1688e+00  2.9762e+00  2.5813e+00  2.9683e+00  2.3507e+00  2.7028e+00  3.5056e+00  6.3335e+00  4.7777e+00  5.4066e+00
  1.5999e+01  1.8178e+01  1.6635e+01  1.3739e+01  1.3602e+01  1.4805e+01  1.5184e+01  1.2815e+01  1.4263e+01  1.0673e+01
  3.4014e+00  3.3428e+00  2.9257e+00  3.0238e+00  3.2361e+00  2.6949e+00  2.6232e+00  3.0085e+00  6.0561e+00  6.5184e+00
  1.5927e+01  1.3242e+01  1.5206e+01  1.1213e+01  1.4456e+01  1.1631e+01  1.5134e+01  1.2835e+01  1.4004e+01  8.9364e+00
  3.4679e+00  3.3814e+00  2.9236e+00  3.4947e+00  3.5715e+00  3.3131e+00  3.9369e+00  2.7150e+00  4.5148e+00  5.8774e+00
  1.9600e+01  1.4543e+01  1.4033e+01  1.3186e+01  1.5344e+01  1.4830e+01  1.4594e+01  1.5507e+01  1.4888e+01  8.8195e+00
  3.4633e+00  3.3105e+00  4.0456e+00  2.8153e+00  2.8529e+00  3.1951e+00  2.6150e+00  4.2689e+00  3.4225e+00  6.7451e+00
  1.8476e+01  1.3433e+01  1.2347e+01  1.5741e+01  0.0000e+00  0.0000e+00  0.0000e+00  1.2875e+01  8.8273e+00  5.1087e+00
  4.1368e+00  3.2677e+00  2.8839e+00  3.3258e+00  3.4857e+00  3.2112e+00  3.0806e+00  2.5045e+00  3.5168e+00  5.3489e+00
  1.9665e+01  1.3117e+01  1.5528e+01  1.4131e+01  0.0000e+00  0.0000e+00  0.0000e+00  0.0000e+00  1.0392e+01  6.3652e+00
  3.0670e+00  2.6610e+00  3.0942e+00  2.4251e+00  3.5019e+00  2.4368e+00  3.3456e+00  2.5427e+00  3.8515e+00  2.8273e+00
  1.7513e+01  1.4759e+01  1.3083e+01  1.5517e+01  0.0000e+00  0.0000e+00  0.0000e+00  0.0000e+00  1.0551e+01  5.4486e+00
  3.1347e+00  3.3698e+00  3.0613e+00  3.0557e+00  3.0613e+00  2.7351e+00  3.0226e+00  2.8656e+00  2.8963e+00  3.6134e+00
  1.2281e+01  1.3476e+01  1.4604e+01  1.4496e+01  0.0000e+00  0.0000e+00  0.0000e+00  0.0000e+00  9.7126e+00  5.2610e+00
  2.5406e+00  4.1927e+00  3.0722e+00  3.1407e+00  2.6258e+00  3.2426e+00  3.5334e+00  2.8549e+00  2.5826e+00  3.2925e+00
  1.4142e+01  1.1962e+01  1.3896e+01  1.2913e+01  0.0000e+00  0.0000e+00  0.0000e+00  0.0000e+00  8.6031e+00  5.6522e+00
  1.7532e+00  1.6521e+00  1.4932e+00  1.7338e+00  1.6462e+00  1.8513e+00  3.2896e+00  2.6617e+00  3.7838e+00  3.4377e+00
  1.4960e+01  1.3669e+01  1.1699e+01  1.0423e+01  0.0000e+00  0.0000e+00  0.0000e+00  0.0000e+00  9.4056e+00  5.6336e+00
  1.6262e+00  1.6896e+00  1.2846e+00  1.5438e+00  1.8402e+00  1.5956e+00  3.7104e+00  3.1993e+00  3.2448e+00  2.7462e+00
  1.2852e+01  1.3661e+01  1.0573e+01  9.0339e+00  0.0000e+00  0.0000e+00  0.0000e+00  0.0000e+00  9.2656e+00  6.6003e+00
  1.0748e+00  1.7295e+00  1.4544e+00  1.5198e+00  1.1214e+00  1.6756e+00  4.3909e+00  2.4590e+00  2.0083e+00  3.4206e+00
  1.4403e+01  1.5213e+01  1.0409e+01  9.0355e+00  0.0000e+00  0.0000e+00  0.0000e+00  0.0000e+00  1.0111e+01  3.6992e+00
  1.4232e+00  1.7499e+00  1.6581e+00  1.5920e+00  1.6104e+00  1.2725e+00  4.1903e+00  2.9122e+00  3.1891e+00  3.6998e+00
  1.3191e+01  9.3046e+00  9.2241e+00  1.0177e+01  0.0000e+00  0.0000e+00  0.0000e+00  0.0000e+00  8.0262e+00  6.2127e+00
  1.3763e+00  1.2943e+00  1.4516e+00  1.3079e+00  1.1092e+00  1.3149e+00  2.9437e+00  3.6516e+00  3.2169e+00  3.2411e+00
  1.3757e+01  9.6697e+00  6.9156e+00  1.0092e+01  0.0000e+00  0.0000e+00  0.0000e+00  0.0000e+00  1.0803e+01  6.4464e+00
  1.3273e+00  1.5796e+00  1.1219e+00  1.2769e+00  1.5814e+00  1.4652e+00  1.6370e+00  2.8829e+00  2.4030e+00  2.3025e+00
  1.3631e+01  1.1051e+01  6.0632e+00  1.1089e+01  0.0000e+00  0.0000e+00  0.0000e+00  0.0000e+00  9.6777e+00  6.2188e+00
  1.7076e+00  1.1244e+00  1.2750e+00  1.5545e+00  1.4465e+00  1.6284e+00  1.5016e+00  2.5399e+00  1.7712e+00  4.0115e+00
  1.4269e+01  1.0143e+01  3.9943e+00  1.0645e+01  0.0000e+00  0.0000e+00  0.0000e+00  0.0000e+00  1.0360e+01  5.3413e+00
  1.1137e+00  1.3405e+00  1.4209e+00  1.5649e+00  2.2000e+00  1.4498e+00  1.5241e+00  2.9436e+00  3.1003e+00  2.8790e+00
  1.2244e+01  9.7607e+00  7.8784e+00  9.5028e+00  0.0000e+00  0.0000e+00  0.0000e+00  0.0000e+00  8.7173e+00  3.9539e+00
  1.8367e+00  1.3385e+00  9.3665e-01  1.3960e+00  1.7390e+00  1.5907e+00  1.5251e+00  2.9159e+00  3.8223e+00  2.6267e+00
  1.4718e+01  1.0695e+01  4.7303e+00  8.2807e+00  0.0000e+00  0.0000e+00  1.0112e+01  1.2156e+01  5.9685e+00  6.0099e+00
  1.1577e+00  1.6447e+00  1.8229e+00  1.3292e+00  1.3365e+00  1.8093e+00  1.3093e+00  1.6470e+00  2.4618e+00  3.1563e+00
  1.2024e+01  9.3289e+00  5.4725e+00  8.6354e+00  8.4379e+00  0.0000e+00  1.0135e+01  1.1927e+01  5.9917e+00  6.0854e+00
  1.2831e+00  1.8849e+00  1.1641e+00  2.0084e+00  1.3688e+00  1.3880e+00  1.2512e+00  1.4895e+00  1.6991e+00  2.9707e+00
  1.3803e+01  8.9535e+00  7.1000e+00  9.3852e+00  1.1012e+01  1.1410e+01  1.0451e+01  4.7665e+00  7.0223e+00  5.0816e+00
  1.4899e+00  1.3294e+00  1.6026e+00  1.1729e+00  1.4137e+00  1.7779e+00  1.0661e+00  1.4885e+00  2.9373e+00  3.1760e+00
  1.4265e+01  9.0847e+00  5.2856e+00  1.2813e+01  1.1107e+01  5.2416e+00  5.7991e+00  5.6034e+00  6.7668e+00  1.7813e+00
  6.4551e-01  3.4632e-01  3.3457e-01  6.1037e-01  2.9866e-01  7.5990e-01  2.2484e+00  1.4189e+00  2.8623e+00  2.6629e+00
  1.4872e+01  1.0049e+01  1.0579e+01  7.2766e+00  6.5425e+00  4.1703e+00  6.1618e+00  4.0361e+00  3.4598e+00  2.7051e+00
  4.4935e-01  6.3725e-01  5.4417e-01  5.6191e-01  4.7260e-01  2.4597e-01  1.1445e+00  1.5841e+00  3.8255e+00  3.5807e+00
  1.3410e+01  1.0742e+01  9.4348e+00  1.0049e+01  6.5546e+00  5.9833e+00  4.5127e+00  4.5002e+00  2.7058e+00  3.4134e+00
  3.0495e-01  5.4159e-01  4.2427e-01  4.6775e-01  3.8476e-01  4.7940e-01  1.7216e+00  1.6441e+00  1.3825e+00  3.4871e+00
  1.3735e+01  1.2127e+01  9.4241e+00  1.0306e+01  7.1944e+00  6.8039e+00  5.4021e+00  3.4308e+00  2.7098e+00  1.9810e+00
  8.6971e-01  3.3906e-01  4.9520e-01  1.8621e-01  2.1029e-01  3.7993e-01  1.3946e+00  1.5522e+00  1.5273e+00  2.7037e+00
  1.5017e+01  1.0897e+01  1.0499e+01  1.0834e+01  6.6445e+00  6.4540e+00  5.4257e+00  2.4875e+00  2.6592e+00  1.8435e+00
  1.8291e-01  4.2357e-02  7.8516e-01  4.4038e-01  6.8956e-01  8.4630e-01  1.4611e+00  1.3011e+00  1.6247e+00  3.5610e+00
  1.4111e+01  9.8787e+00  8.0351e+00  5.3384e+00  6.2775e+00  5.2240e+00  5.5896e+00  5.5891e+00  2.6451e+00  1.7568e+00
  9.1572e-01  5.6926e-01  2.3439e-01  4.4421e-01  1.3945e-02  6.3471e-01  4.3162e-01  1.4960e+00  1.7119e+00  3.4404e+00
  1.1296e+01  9.6566e+00  7.7356e+00  1.1020e+01  4.5768e+00  7.2037e+00  7.3885e+00  5.2052e+00  2.7217e+00  1.3624e+00
  3.3393e-01  6.9415e-01  6.5321e-01  5.9193e-01  4.1246e-01  4.9522e-01  7.1503e-01  1.0985e+00  1.6975e+00  2.1805e+00
  1.2594e+01  9.9103e+00  1.0769e+01  4.5977e+00  5.6607e+00  6.2810e+00  5.7616e+00  2.4491e+00  3.4721e+00  2.0608e+00
  6.8552e-01  2.5336e-01  9.1441e-01  5.4346e-01  5.6949e-01  7.5008e-01  2.3777e-01  1.2186e+00  1.1072e+00  3.1487e+00
  0.0000e+00  8.8675e+00  1.0937e+01  5.9463e+00  6.7191e+00  6.5623e+00  5.4118e+00  3.4439e+00  2.3840e+00  1.9104e+00
  5.0746e-01  6.8438e-01  1.8877e-01  4.6541e-01  7.1091e-01  3.4071e-01  1.5942e-01  1.4753e+00  1.0008e+00  2.4790e+00
  0.0000e+00  0.0000e+00  1.0951e+01  6.1613e+00  6.3923e+00  6.7709e+00  2.9707e+00  3.0016e+00  3.1640e+00  9.2741e-01
  1.6310e-01  6.6005e-01  2.6561e-01  3.3311e-01  6.9232e-01  4.8345e-01  6.3888e-01  1.3737e+00  1.6797e+00  1.4661e+00
  0.0000e+00  0.0000e+00  0.0000e+00  7.3548e+00  5.1731e+00  4.9708e+00  5.2845e+00  6.2087e+00  3.1052e+00  1.3327e+00
  8.0084e-01  3.9921e-01  4.7913e-01  1.8351e-01  5.8788e-01  7.4344e-01  8.5021e-01  1.9328e+00  1.8556e+00  2.0022e+00
  0.0000e+00  0.0000e+00  0.0000e+00  0.0000e+00  4.2779e+00  4.8438e+00  5.5892e+00  5.0886e+00  3.2245e+00  1.6683e+00
  6.8472e-01  4.0313e-01  5.1307e-01  5.3072e-01  2.5027e-01  6.3302e-01  6.8430e-01  1.4369e+00  1.6174e+00  0.0000e+00
  0.0000e+00  0.0000e+00  0.0000e+00  0.0000e+00  5.8926e+00  6.2475e+00  7.1632e+00  3.0387e+00  2.2536e+00  1.6464e+00
  3.1075e-01 -2.0274e-01  5.4896e-01  1.0779e+00  6.4944e-02  4.2170e-01  3.1244e-01  1.7811e+00  1.4466e+00  0.0000e+00
  0.0000e+00  0.0000e+00  0.0000e+00  0.0000e+00  0.0000e+00  6.5855e+00  4.7402e+00  1.7855e+00  2.9122e+00  1.6155e+00
  7.0832e-01  4.1666e-01  5.6100e-01  4.7438e-01  3.7151e-01  3.2872e-01  4.9578e-01  1.4285e+00  0.0000e+00  0.0000e+00
  0.0000e+00  0.0000e+00  0.0000e+00  0.0000e+00  0.0000e+00  5.1503e+00  5.8960e+00  2.3450e+00  2.7254e+00  1.4189e+00
  1.2200e-01  4.6661e-01  4.9436e-01  1.6616e-01  6.7492e-01  6.8190e-01 -1.6633e-03  0.0000e+00  0.0000e+00  0.0000e+00
  0.0000e+00  0.0000e+00  0.0000e+00  0.0000e+00  0.0000e+00  6.9138e+00  4.5808e+00  2.5275e+00  2.6038e+00  1.4444e+00
  5.3652e-01  2.2531e-01  5.8956e-01  6.0786e-01  5.0599e-01  0.0000e+00  0.0000e+00  0.0000e+00  0.0000e+00  0.0000e+00
  10.000000  1  1.200000  SS
