# MODFLOW2000 Well Package
PARAMETER  0  0
 6 50   AUX IFACE
 6 0               Stress Period 1
 1 9 16 -8.200000e-003 0
 1 11 13 -4.100000e-003 0
 1 20 14 -3.900000e-003 0
 1 26 10 -8.300000e-004 0
 1 29 6 -7.200000e-004 0
 1 34 12 -4.300000e-003 0
