# MODFLOW-NWT Basic Package
# MODFLOW-NWT Data Set 
#   

         0         1(25I3)                      -1     IBOUND Layer   1
         0         1(25I3)                      -1     IBOUND Layer   2
         0         1(25I3)                      -1     IBOUND Layer   3
         0         1(25I3)                      -1     IBOUND Layer   4
         0         1(25I3)                      -1     IBOUND Layer   5
         0         1(25I3)                      -1     IBOUND Layer   6
         0         1(25I3)                      -1     IBOUND Layer   7
         0         1(25I3)                      -1     IBOUND Layer   8
         0         1(25I3)                      -1     IBOUND Layer   9
         0         1(25I3)                      -1     IBOUND Layer  10
         0         1(25I3)                      -1     IBOUND Layer  11
         0         1(25I3)                      -1     IBOUND Layer  12
         0         1(25I3)                      -1     IBOUND Layer  13
         0         1(25I3)                      -1     IBOUND Layer  14
         0         1(25I3)                      -1     IBOUND Layer  15
         0         1(25I3)                      -1     IBOUND Layer  16
         0         1(25I3)                      -1     IBOUND Layer  17
         0         1(25I3)                      -1     IBOUND Layer  18
         0         1(25I3)                      -1     IBOUND Layer  19
         0         1(25I3)                      -1     IBOUND Layer  20
         0         1(25I3)                      -1     IBOUND Layer  21
         0         1(25I3)                      -1     IBOUND Layer  22
         0         1(25I3)                      -1     IBOUND Layer  23
         0         1(25I3)                      -1     IBOUND Layer  24
         0         1(25I3)                      -1     IBOUND Layer  25
         0         1(25I3)                      -1     IBOUND Layer  26
         0         1(25I3)                      -1     IBOUND Layer  27
         0         1(25I3)                      -1     IBOUND Layer  28
         0         1(25I3)                      -1     IBOUND Layer  29
         0         1(25I3)                      -1     IBOUND Layer  30
         0         1(25I3)                      -1     IBOUND Layer  31
         0         1(25I3)                      -1     IBOUND Layer  32
         0         1(25I3)                      -1     IBOUND Layer  33
         0         1(25I3)                      -1     IBOUND Layer  34
         0         1(25I3)                      -1     IBOUND Layer  35
         0         1(25I3)                      -1     IBOUND Layer  36
         0         1(25I3)                      -1     IBOUND Layer  37
         0         1(25I3)                      -1     IBOUND Layer  38
         0         1(25I3)                      -1     IBOUND Layer  39
         0         1(25I3)                      -1     IBOUND Layer  40
         0         1(25I3)                      -1     IBOUND Layer  41
         0         1(25I3)                      -1     IBOUND Layer  42
         0         1(25I3)                      -1     IBOUND Layer  43
         0         1(25I3)                      -1     IBOUND Layer  44
         0         1(25I3)                      -1     IBOUND Layer  45
         0         1(25I3)                      -1     IBOUND Layer  46
         0         1(25I3)                      -1     IBOUND Layer  47
         0         1(25I3)                      -1     IBOUND Layer  48
         0         1(25I3)                      -1     IBOUND Layer  49
         0         1(25I3)                      -1     IBOUND Layer  50
         0         1(25I3)                      -1     IBOUND Layer  51
         0         1(25I3)                      -1     IBOUND Layer  52
         0         1(25I3)                      -1     IBOUND Layer  53
         0         1(25I3)                      -1     IBOUND Layer  54
         0         1(25I3)                      -1     IBOUND Layer  55
         0         1(25I3)                      -1     IBOUND Layer  56
         0         1(25I3)                      -1     IBOUND Layer  57
         0         1(25I3)                      -1     IBOUND Layer  58
         0         1(25I3)                      -1     IBOUND Layer  59
         0         1(25I3)                      -1     IBOUND Layer  60
         0         1(25I3)                      -1     IBOUND Layer  61
         0         1(25I3)                      -1     IBOUND Layer  62
         0         1(25I3)                      -1     IBOUND Layer  63
         0         1(25I3)                      -1     IBOUND Layer  64
         0         1(25I3)                      -1     IBOUND Layer  65
         0         1(25I3)                      -1     IBOUND Layer  66
         0         1(25I3)                      -1     IBOUND Layer  67
         0         1(25I3)                      -1     IBOUND Layer  68
         0         1(25I3)                      -1     IBOUND Layer  69
         0         1(25I3)                      -1     IBOUND Layer  70
         0         1(25I3)                      -1     IBOUND Layer  71
         0         1(25I3)                      -1     IBOUND Layer  72
         0         1(25I3)                      -1     IBOUND Layer  73
         0         1(25I3)                      -1     IBOUND Layer  74
         0         1(25I3)                      -1     IBOUND Layer  75
         0         1(25I3)                      -1     IBOUND Layer  76
         0         1(25I3)                      -1     IBOUND Layer  77
         0         1(25I3)                      -1     IBOUND Layer  78
         0         1(25I3)                      -1     IBOUND Layer  79
         0         1(25I3)                      -1     IBOUND Layer  80
9.9900e+02
         0  1975.000(10e12.4)                   -1     STARTING HEADS Layer   1
         0  1950.000(10e12.4)                   -1     STARTING HEADS Layer   2
         0  1925.000(10e12.4)                   -1     STARTING HEADS Layer   3
         0  1900.000(10e12.4)                   -1     STARTING HEADS Layer   4
         0  1875.000(10e12.4)                   -1     STARTING HEADS Layer   5
         0  1850.000(10e12.4)                   -1     STARTING HEADS Layer   6
         0  1825.000(10e12.4)                   -1     STARTING HEADS Layer   7
         0  1800.000(10e12.4)                   -1     STARTING HEADS Layer   8
         0  1775.000(10e12.4)                   -1     STARTING HEADS Layer   9
         0  1750.000(10e12.4)                   -1     STARTING HEADS Layer  10
         0  1725.000(10e12.4)                   -1     STARTING HEADS Layer  11
         0  1700.000(10e12.4)                   -1     STARTING HEADS Layer  12
         0  1675.000(10e12.4)                   -1     STARTING HEADS Layer  13
         0  1650.000(10e12.4)                   -1     STARTING HEADS Layer  14
         0  1625.000(10e12.4)                   -1     STARTING HEADS Layer  15
         0  1600.000(10e12.4)                   -1     STARTING HEADS Layer  16
         0  1575.000(10e12.4)                   -1     STARTING HEADS Layer  17
         0  1550.000(10e12.4)                   -1     STARTING HEADS Layer  18
         0  1525.000(10e12.4)                   -1     STARTING HEADS Layer  19
         0  1500.000(10e12.4)                   -1     STARTING HEADS Layer  20
         0  1475.000(10e12.4)                   -1     STARTING HEADS Layer  21
         0  1450.000(10e12.4)                   -1     STARTING HEADS Layer  22
         0  1425.000(10e12.4)                   -1     STARTING HEADS Layer  23
         0  1400.000(10e12.4)                   -1     STARTING HEADS Layer  24
         0  1375.000(10e12.4)                   -1     STARTING HEADS Layer  25
         0  1350.000(10e12.4)                   -1     STARTING HEADS Layer  26
         0  1325.000(10e12.4)                   -1     STARTING HEADS Layer  27
         0  1300.000(10e12.4)                   -1     STARTING HEADS Layer  28
         0  1275.000(10e12.4)                   -1     STARTING HEADS Layer  29
         0  1250.000(10e12.4)                   -1     STARTING HEADS Layer  30
         0  1225.000(10e12.4)                   -1     STARTING HEADS Layer  31
         0  1200.000(10e12.4)                   -1     STARTING HEADS Layer  32
         0  1175.000(10e12.4)                   -1     STARTING HEADS Layer  33
         0  1150.000(10e12.4)                   -1     STARTING HEADS Layer  34
         0  1125.000(10e12.4)                   -1     STARTING HEADS Layer  35
         0  1100.000(10e12.4)                   -1     STARTING HEADS Layer  36
         0  1075.000(10e12.4)                   -1     STARTING HEADS Layer  37
         0  1050.000(10e12.4)                   -1     STARTING HEADS Layer  38
         0  1025.000(10e12.4)                   -1     STARTING HEADS Layer  39
         0  1000.000(10e12.4)                   -1     STARTING HEADS Layer  40
         0   975.000(10e12.4)                   -1     STARTING HEADS Layer  41
         0   950.000(10e12.4)                   -1     STARTING HEADS Layer  42
         0   925.000(10e12.4)                   -1     STARTING HEADS Layer  43
         0   900.000(10e12.4)                   -1     STARTING HEADS Layer  44
         0   875.000(10e12.4)                   -1     STARTING HEADS Layer  45
         0   850.000(10e12.4)                   -1     STARTING HEADS Layer  46
         0   825.000(10e12.4)                   -1     STARTING HEADS Layer  47
         0   800.000(10e12.4)                   -1     STARTING HEADS Layer  48
         0   775.000(10e12.4)                   -1     STARTING HEADS Layer  49
         0   750.000(10e12.4)                   -1     STARTING HEADS Layer  50
         0   725.000(10e12.4)                   -1     STARTING HEADS Layer  51
         0   700.000(10e12.4)                   -1     STARTING HEADS Layer  52
         0   675.000(10e12.4)                   -1     STARTING HEADS Layer  53
         0   650.000(10e12.4)                   -1     STARTING HEADS Layer  54
         0   625.000(10e12.4)                   -1     STARTING HEADS Layer  55
         0   600.000(10e12.4)                   -1     STARTING HEADS Layer  56
         0   600.000(10e12.4)                   -1     STARTING HEADS Layer  57
         0   600.000(10e12.4)                   -1     STARTING HEADS Layer  58
         0   600.000(10e12.4)                   -1     STARTING HEADS Layer  59
         0   600.000(10e12.4)                   -1     STARTING HEADS Layer  60
         0   600.000(10e12.4)                   -1     STARTING HEADS Layer  61
         0   600.000(10e12.4)                   -1     STARTING HEADS Layer  62
         0   600.000(10e12.4)                   -1     STARTING HEADS Layer  63
         0   600.000(10e12.4)                   -1     STARTING HEADS Layer  64
         0   600.000(10e12.4)                   -1     STARTING HEADS Layer  65
         0   600.000(10e12.4)                   -1     STARTING HEADS Layer  66
         0   600.000(10e12.4)                   -1     STARTING HEADS Layer  67
         0   600.000(10e12.4)                   -1     STARTING HEADS Layer  68
         0   600.000(10e12.4)                   -1     STARTING HEADS Layer  69
         0   600.000(10e12.4)                   -1     STARTING HEADS Layer  70
         0   600.000(10e12.4)                   -1     STARTING HEADS Layer  71
         0   600.000(10e12.4)                   -1     STARTING HEADS Layer  72
         0   600.000(10e12.4)                   -1     STARTING HEADS Layer  73
         0   600.000(10e12.4)                   -1     STARTING HEADS Layer  74
         0   600.000(10e12.4)                   -1     STARTING HEADS Layer  75
         0   600.000(10e12.4)                   -1     STARTING HEADS Layer  76
         0   600.000(10e12.4)                   -1     STARTING HEADS Layer  77
         0   600.000(10e12.4)                   -1     STARTING HEADS Layer  78
         0   600.000(10e12.4)                   -1     STARTING HEADS Layer  79
         0   600.000(10e12.4)                   -1     STARTING HEADS Layer  80


