# MODFLOW-NWT Layer Property Flow (LPF) Package
        50  -1.000000e+030         0        1
  1  3  3  3  3  3  3  3  3  3  3  3  3  3  3  3  3  3  3  3  3  3  3  3  3  3  3  3  3  3  3  3  3  3  3  3  3  3  3  3  3  3  3  3  3  3  3  3  3  3  3  3  3  3  3  3  3  3  3  3  3  3  3  3  3  3  3  3  3  3  3  3  3  3  3  3  3  3  3  3
  0  0  0  0  0  0  0  0  0  0  0  0  0  0  0  0  0  0  0  0  0  0  0  0  0  0  0  0  0  0  0  0  0  0  0  0  0  0  0  0  0  0  0  0  0  0  0  0  0  0  0  0  0  0  0  0  0  0  0  0  0  0  0  0  0  0  0  0  0  0  0  0  0  0  0  0  0  0  0  0
  1.000000e+000  1.000000e+000  1.000000e+000  1.000000e+000  1.000000e+000  1.000000e+000  1.000000e+000  1.000000e+000  1.000000e+000  1.000000e+000  1.000000e+000  1.000000e+000  1.000000e+000  1.000000e+000  1.000000e+000  1.000000e+000  1.000000e+000  1.000000e+000  1.000000e+000  1.000000e+000
  1.000000e+000  1.000000e+000  1.000000e+000  1.000000e+000  1.000000e+000  1.000000e+000  1.000000e+000  1.000000e+000  1.000000e+000  1.000000e+000  1.000000e+000  1.000000e+000  1.000000e+000  1.000000e+000  1.000000e+000  1.000000e+000  1.000000e+000  1.000000e+000  1.000000e+000  1.000000e+000
  1.000000e+000  1.000000e+000  1.000000e+000  1.000000e+000  1.000000e+000  1.000000e+000  1.000000e+000  1.000000e+000  1.000000e+000  1.000000e+000  1.000000e+000  1.000000e+000  1.000000e+000  1.000000e+000  1.000000e+000  1.000000e+000  1.000000e+000  1.000000e+000  1.000000e+000  1.000000e+000
  1.000000e+000  1.000000e+000  1.000000e+000  1.000000e+000  1.000000e+000  1.000000e+000  1.000000e+000  1.000000e+000  1.000000e+000  1.000000e+000  1.000000e+000  1.000000e+000  1.000000e+000  1.000000e+000  1.000000e+000  1.000000e+000  1.000000e+000  1.000000e+000  1.000000e+000  1.000000e+000
 0 0 0 0 0 0 0 0 0 0 0 0 0 0 0 0 0 0 0 0 0 0 0 0 0 0 0 0 0 0 0 0 0 0 0 0 0 0 0 0 0 0 0 0 0 0 0 0 0 0 0 0 0 0 0 0 0 0 0 0 0 0 0 0 0 0 0 0 0 0 0 0 0 0 0 0 0 0 0 0
 0 0 0 0 0 0 0 0 0 0 0 0 0 0 0 0 0 0 0 0 0 0 0 0 0 0 0 0 0 0 0 0 0 0 0 0 0 0 0 0 0 0 0 0 0 0 0 0 0 0 0 0 0 0 0 0 0 0 0 0 0 0 0 0 0 0 0 0 0 0 0 0 0 0 0 0 0 0 0 0
        11     1.000(10e12.4)                   -1     HYDRAULIC CONDUCTIVITY Layer   1
  8.5000e-01  8.5000e-01  8.5000e-01  8.5000e-01  8.5000e-01  8.5000e-01  8.5000e-01  8.5000e-01  8.5000e-01  8.5000e-01
  8.5000e-01  8.5000e-01  8.5000e-01  8.5000e-01  8.5000e-01  8.5000e-01  8.5000e-01  8.5000e-01  8.5000e-01  8.5000e-01
  8.5000e-01  8.5000e-01  8.5000e-01  8.5000e-01  8.5000e-01  8.5000e-01  8.5000e-01  8.5000e-01  8.5000e-01  8.5000e-01
  8.5000e-01  8.5000e-01  8.5000e-01  8.5000e-01  8.5000e-01  8.5000e-01  8.5000e-01  8.5000e-01  8.5000e-01  8.5000e-01
  8.5000e-01  8.5000e-01  8.5000e-01  8.5000e-01  8.5000e-01  8.5000e-01  8.5000e-01  8.5000e-01  8.5000e-01  8.5000e-01
  8.5000e-01  8.5000e-01  8.5000e-01  8.5000e-01  8.5000e-01  8.5000e-01  8.5000e-01  8.5000e-01  8.5000e-01  8.5000e-01
  8.5000e-01  8.5000e-01  8.5000e-01  8.5000e-01  8.5000e-01  8.5000e-01  8.5000e-01  8.5000e-01  8.5000e-01  8.5000e-01
  8.5000e-01  8.5000e-01  8.5000e-01  8.5000e-01  8.5000e-01  8.5000e-01  8.5000e-01  8.5000e-01  8.5000e-01  8.5000e-01
  8.5000e-01  8.5000e-01  8.5000e-01  8.5000e-01  8.5000e-01  8.5000e-01  8.5000e-01  8.5000e-01  8.5000e-01  8.5000e-01
  8.5000e-01  8.5000e-01  8.5000e-01  8.5000e-01  8.5000e-01  8.5000e-01  8.5000e-01  8.5000e-01  8.5000e-01  8.5000e-01
  8.5000e-01  8.5000e-01  8.5000e-01  8.5000e-01  8.5000e-01  8.5000e-01  8.5000e-01  8.5000e-01  8.5000e-01  8.5000e-01
  8.5000e-01  8.5000e-01  8.5000e-01  8.5000e-01  8.5000e-01  8.5000e-01  8.5000e-01  8.5000e-01  8.5000e-01  8.5000e-01
  8.5000e-01  8.5000e-01  8.5000e-01  8.5000e-01  8.5000e-01  8.5000e-01  8.5000e-01  8.5000e-01  8.5000e-01  8.5000e-01
  8.5000e-01  8.5000e-01  8.5000e-01  8.5000e-01  8.5000e-01  8.5000e-01  8.5000e-01  8.5000e-01  8.5000e-01  8.5000e-01
  8.5000e-01  8.5000e-01  8.5000e-01  8.5000e-01  8.5000e-01  8.5000e-01  8.5000e-01  8.5000e-01  8.5000e-01  8.5000e-01
  8.5000e-01  8.5000e-01  8.5000e-01  8.5000e-01  8.5000e-01  8.5000e-01  8.5000e-01  8.5000e-01  8.5000e-01  8.5000e-01
  8.5000e-01  8.5000e-01  8.5000e-01  8.5000e-01  8.5000e-01  8.5000e-01  8.5000e-01  8.5000e-01  8.5000e-01  8.5000e-01
  8.5000e-01  8.5000e-01  8.5000e-01  8.5000e-01  8.5000e-01  8.5000e-01  8.5000e-01  8.5000e-01  8.5000e-01  8.5000e-01
  8.5000e-01  8.5000e-01  8.5000e-01  8.5000e-01  8.5000e-01  8.5000e-01  8.5000e-01  8.5000e-01  8.5000e-01  8.5000e-01
  8.5000e-01  8.5000e-01  8.5000e-01  8.5000e-01  8.5000e-01  8.5000e-01  8.5000e-01  8.5000e-01  8.5000e-01  8.5000e-01
  8.5000e-01  8.5000e-01  8.5000e-01  8.5000e-01  8.5000e-01  8.5000e-01  8.5000e-01  8.5000e-01  8.5000e-01  8.5000e-01
  8.5000e-01  8.5000e-01  8.5000e-01  8.5000e-01  8.5000e-01  8.5000e-01  8.5000e-01  8.5000e-01  8.5000e-01  8.5000e-01
  8.5000e-01  8.5000e-01  8.5000e-01  8.5000e-01  8.5000e-01  8.5000e-01  8.5000e-01  8.5000e-01  8.5000e-01  8.5000e-01
  8.5000e-01  8.5000e-01  8.5000e-01  8.5000e-01  8.5000e-01  8.5000e-01  8.5000e-01  8.5000e-01  8.5000e-01  8.5000e-01
  8.5000e-01  8.5000e-01  8.5000e-01  8.5000e-01  8.5000e-01  8.5000e-01  8.5000e-01  8.5000e-01  8.5000e-01  8.5000e-01
  8.5000e-01  8.5000e-01  8.5000e-01  8.5000e-01  8.5000e-01  8.5000e-01  8.5000e-01  8.5000e-01  8.5000e-01  8.5000e-01
  8.5000e-01  8.5000e-01  8.5000e-01  8.5000e-01  8.5000e-01  8.5000e-01  8.5000e-01  8.5000e-01  8.5000e-01  8.5000e-01
  8.5000e-01  8.5000e-01  8.5000e-01  8.5000e-01  8.5000e-01  8.5000e-01  8.5000e-01  8.5000e-01  8.5000e-01  8.5000e-01
  8.5000e-01  8.5000e-01  8.5000e-01  8.5000e-01  8.5000e-01  8.5000e-01  8.5000e-01  8.5000e-01  8.5000e-01  8.5000e-01
  8.5000e-01  8.5000e-01  8.5000e-01  8.5000e-01  8.5000e-01  8.5000e-01  8.5000e-01  8.5000e-01  8.5000e-01  8.5000e-01
  8.5000e-01  8.5000e-01  8.5000e-01  8.5000e-01  8.5000e-01  8.5000e-01  8.5000e-01  8.5000e-01  8.5000e-01  8.5000e-01
  8.5000e-01  8.5000e-01  8.5000e-01  8.5000e-01  8.5000e-01  8.5000e-01  8.5000e-01  8.5000e-01  8.5000e-01  8.5000e-01
  8.5000e-01  8.5000e-01  8.5000e-01  8.5000e-01  8.5000e-01  8.5000e-01  8.5000e-01  8.5000e-01  8.5000e-01  8.5000e-01
  8.5000e-01  8.5000e-01  8.5000e-01  8.5000e-01  8.5000e-01  8.5000e-01  8.5000e-01  8.5000e-01  8.5000e-01  8.5000e-01
  8.5000e-01  8.5000e-01  8.5000e-01  8.5000e-01  8.5000e-01  8.5000e-01  8.5000e-01  8.5000e-01  8.5000e-01  8.5000e-01
  8.5000e-01  8.5000e-01  8.5000e-01  8.5000e-01  8.5000e-01  8.5000e-01  8.5000e-01  8.5000e-01  8.5000e-01  8.5000e-01
  8.5000e-01  8.5000e-01  8.5000e-01  8.5000e-01  8.5000e-01  8.5000e-01  8.5000e-01  8.5000e-01  8.5000e-01  8.5000e-01
  8.5000e-01  8.5000e-01  8.5000e-01  8.5000e-01  8.5000e-01  8.5000e-01  8.5000e-01  8.5000e-01  8.5000e-01  8.5000e-01
  8.5000e-01  8.5000e-01  8.5000e-01  8.5000e-01  8.5000e-01  8.5000e-01  8.5000e-01  8.5000e-01  8.5000e-01  8.5000e-01
  8.5000e-01  8.5000e-01  8.5000e-01  8.5000e-01  8.5000e-01  8.5000e-01  8.5000e-01  8.5000e-01  8.5000e-01  8.5000e-01
  8.5000e-01
        11     1.000(10e12.4)                   -1     VERTICAL HYDRAULIC CONDUCTIVITY Layer   1
  8.5000e-01  8.5000e-01  8.5000e-01  8.5000e-01  8.5000e-01  8.5000e-01  8.5000e-01  8.5000e-01  8.5000e-01  8.5000e-01
  8.5000e-01  8.5000e-01  8.5000e-01  8.5000e-01  8.5000e-01  8.5000e-01  8.5000e-01  8.5000e-01  8.5000e-01  8.5000e-01
  8.5000e-01  8.5000e-01  8.5000e-01  8.5000e-01  8.5000e-01  8.5000e-01  8.5000e-01  8.5000e-01  8.5000e-01  8.5000e-01
  8.5000e-01  8.5000e-01  8.5000e-01  8.5000e-01  8.5000e-01  8.5000e-01  8.5000e-01  8.5000e-01  8.5000e-01  8.5000e-01
  8.5000e-01  8.5000e-01  8.5000e-01  8.5000e-01  8.5000e-01  8.5000e-01  8.5000e-01  8.5000e-01  8.5000e-01  8.5000e-01
  8.5000e-01  8.5000e-01  8.5000e-01  8.5000e-01  8.5000e-01  8.5000e-01  8.5000e-01  8.5000e-01  8.5000e-01  8.5000e-01
  8.5000e-01  8.5000e-01  8.5000e-01  8.5000e-01  8.5000e-01  8.5000e-01  8.5000e-01  8.5000e-01  8.5000e-01  8.5000e-01
  8.5000e-01  8.5000e-01  8.5000e-01  8.5000e-01  8.5000e-01  8.5000e-01  8.5000e-01  8.5000e-01  8.5000e-01  8.5000e-01
  8.5000e-01  8.5000e-01  8.5000e-01  8.5000e-01  8.5000e-01  8.5000e-01  8.5000e-01  8.5000e-01  8.5000e-01  8.5000e-01
  8.5000e-01  8.5000e-01  8.5000e-01  8.5000e-01  8.5000e-01  8.5000e-01  8.5000e-01  8.5000e-01  8.5000e-01  8.5000e-01
  8.5000e-01  8.5000e-01  8.5000e-01  8.5000e-01  8.5000e-01  8.5000e-01  8.5000e-01  8.5000e-01  8.5000e-01  8.5000e-01
  8.5000e-01  8.5000e-01  8.5000e-01  8.5000e-01  8.5000e-01  8.5000e-01  8.5000e-01  8.5000e-01  8.5000e-01  8.5000e-01
  8.5000e-01  8.5000e-01  8.5000e-01  8.5000e-01  8.5000e-01  8.5000e-01  8.5000e-01  8.5000e-01  8.5000e-01  8.5000e-01
  8.5000e-01  8.5000e-01  8.5000e-01  8.5000e-01  8.5000e-01  8.5000e-01  8.5000e-01  8.5000e-01  8.5000e-01  8.5000e-01
  8.5000e-01  8.5000e-01  8.5000e-01  8.5000e-01  8.5000e-01  8.5000e-01  8.5000e-01  8.5000e-01  8.5000e-01  8.5000e-01
  8.5000e-01  8.5000e-01  8.5000e-01  8.5000e-01  8.5000e-01  8.5000e-01  8.5000e-01  8.5000e-01  8.5000e-01  8.5000e-01
  8.5000e-01  8.5000e-01  8.5000e-01  8.5000e-01  8.5000e-01  8.5000e-01  8.5000e-01  8.5000e-01  8.5000e-01  8.5000e-01
  8.5000e-01  8.5000e-01  8.5000e-01  8.5000e-01  8.5000e-01  8.5000e-01  8.5000e-01  8.5000e-01  8.5000e-01  8.5000e-01
  8.5000e-01  8.5000e-01  8.5000e-01  8.5000e-01  8.5000e-01  8.5000e-01  8.5000e-01  8.5000e-01  8.5000e-01  8.5000e-01
  8.5000e-01  8.5000e-01  8.5000e-01  8.5000e-01  8.5000e-01  8.5000e-01  8.5000e-01  8.5000e-01  8.5000e-01  8.5000e-01
  8.5000e-01  8.5000e-01  8.5000e-01  8.5000e-01  8.5000e-01  8.5000e-01  8.5000e-01  8.5000e-01  8.5000e-01  8.5000e-01
  8.5000e-01  8.5000e-01  8.5000e-01  8.5000e-01  8.5000e-01  8.5000e-01  8.5000e-01  8.5000e-01  8.5000e-01  8.5000e-01
  8.5000e-01  8.5000e-01  8.5000e-01  8.5000e-01  8.5000e-01  8.5000e-01  8.5000e-01  8.5000e-01  8.5000e-01  8.5000e-01
  8.5000e-01  8.5000e-01  8.5000e-01  8.5000e-01  8.5000e-01  8.5000e-01  8.5000e-01  8.5000e-01  8.5000e-01  8.5000e-01
  8.5000e-01  8.5000e-01  8.5000e-01  8.5000e-01  8.5000e-01  8.5000e-01  8.5000e-01  8.5000e-01  8.5000e-01  8.5000e-01
  8.5000e-01  8.5000e-01  8.5000e-01  8.5000e-01  8.5000e-01  8.5000e-01  8.5000e-01  8.5000e-01  8.5000e-01  8.5000e-01
  8.5000e-01  8.5000e-01  8.5000e-01  8.5000e-01  8.5000e-01  8.5000e-01  8.5000e-01  8.5000e-01  8.5000e-01  8.5000e-01
  8.5000e-01  8.5000e-01  8.5000e-01  8.5000e-01  8.5000e-01  8.5000e-01  8.5000e-01  8.5000e-01  8.5000e-01  8.5000e-01
  8.5000e-01  8.5000e-01  8.5000e-01  8.5000e-01  8.5000e-01  8.5000e-01  8.5000e-01  8.5000e-01  8.5000e-01  8.5000e-01
  8.5000e-01  8.5000e-01  8.5000e-01  8.5000e-01  8.5000e-01  8.5000e-01  8.5000e-01  8.5000e-01  8.5000e-01  8.5000e-01
  8.5000e-01  8.5000e-01  8.5000e-01  8.5000e-01  8.5000e-01  8.5000e-01  8.5000e-01  8.5000e-01  8.5000e-01  8.5000e-01
  8.5000e-01  8.5000e-01  8.5000e-01  8.5000e-01  8.5000e-01  8.5000e-01  8.5000e-01  8.5000e-01  8.5000e-01  8.5000e-01
  8.5000e-01  8.5000e-01  8.5000e-01  8.5000e-01  8.5000e-01  8.5000e-01  8.5000e-01  8.5000e-01  8.5000e-01  8.5000e-01
  8.5000e-01  8.5000e-01  8.5000e-01  8.5000e-01  8.5000e-01  8.5000e-01  8.5000e-01  8.5000e-01  8.5000e-01  8.5000e-01
  8.5000e-01  8.5000e-01  8.5000e-01  8.5000e-01  8.5000e-01  8.5000e-01  8.5000e-01  8.5000e-01  8.5000e-01  8.5000e-01
  8.5000e-01  8.5000e-01  8.5000e-01  8.5000e-01  8.5000e-01  8.5000e-01  8.5000e-01  8.5000e-01  8.5000e-01  8.5000e-01
  8.5000e-01  8.5000e-01  8.5000e-01  8.5000e-01  8.5000e-01  8.5000e-01  8.5000e-01  8.5000e-01  8.5000e-01  8.5000e-01
  8.5000e-01  8.5000e-01  8.5000e-01  8.5000e-01  8.5000e-01  8.5000e-01  8.5000e-01  8.5000e-01  8.5000e-01  8.5000e-01
  8.5000e-01  8.5000e-01  8.5000e-01  8.5000e-01  8.5000e-01  8.5000e-01  8.5000e-01  8.5000e-01  8.5000e-01  8.5000e-01
  8.5000e-01  8.5000e-01  8.5000e-01  8.5000e-01  8.5000e-01  8.5000e-01  8.5000e-01  8.5000e-01  8.5000e-01  8.5000e-01
  8.5000e-01
CONSTANT 1e-6                                          Ss Layer 1
CONSTANT 0.1                                           SY Layer 1
        11     1.000(10e12.4)                   -1     HYDRAULIC CONDUCTIVITY Layer   2
  8.5000e-01  8.5000e-01  8.5000e-01  8.5000e-01  8.5000e-01  8.5000e-01  8.5000e-01  8.5000e-01  8.5000e-01  8.5000e-01
  8.5000e-01  8.5000e-01  8.5000e-01  8.5000e-01  8.5000e-01  8.5000e-01  8.5000e-01  8.5000e-01  8.5000e-01  8.5000e-01
  8.5000e-01  8.5000e-01  8.5000e-01  8.5000e-01  8.5000e-01  8.5000e-01  8.5000e-01  8.5000e-01  8.5000e-01  8.5000e-01
  8.5000e-01  8.5000e-01  8.5000e-01  8.5000e-01  8.5000e-01  8.5000e-01  8.5000e-01  8.5000e-01  8.5000e-01  8.5000e-01
  8.5000e-01  8.5000e-01  8.5000e-01  8.5000e-01  8.5000e-01  8.5000e-01  8.5000e-01  8.5000e-01  8.5000e-01  8.5000e-01
  8.5000e-01  8.5000e-01  8.5000e-01  8.5000e-01  8.5000e-01  8.5000e-01  8.5000e-01  8.5000e-01  8.5000e-01  8.5000e-01
  8.5000e-01  8.5000e-01  8.5000e-01  8.5000e-01  8.5000e-01  8.5000e-01  8.5000e-01  8.5000e-01  8.5000e-01  8.5000e-01
  8.5000e-01  8.5000e-01  8.5000e-01  8.5000e-01  8.5000e-01  8.5000e-01  8.5000e-01  8.5000e-01  8.5000e-01  8.5000e-01
  8.5000e-01  8.5000e-01  8.5000e-01  8.5000e-01  8.5000e-01  8.5000e-01  8.5000e-01  8.5000e-01  8.5000e-01  8.5000e-01
  8.5000e-01  8.5000e-01  8.5000e-01  8.5000e-01  8.5000e-01  8.5000e-01  8.5000e-01  8.5000e-01  8.5000e-01  8.5000e-01
  8.5000e-01  8.5000e-01  8.5000e-01  8.5000e-01  8.5000e-01  8.5000e-01  8.5000e-01  8.5000e-01  8.5000e-01  8.5000e-01
  8.5000e-01  8.5000e-01  8.5000e-01  8.5000e-01  8.5000e-01  8.5000e-01  8.5000e-01  8.5000e-01  8.5000e-01  8.5000e-01
  8.5000e-01  8.5000e-01  8.5000e-01  8.5000e-01  8.5000e-01  8.5000e-01  8.5000e-01  8.5000e-01  8.5000e-01  8.5000e-01
  8.5000e-01  8.5000e-01  8.5000e-01  8.5000e-01  8.5000e-01  8.5000e-01  8.5000e-01  8.5000e-01  8.5000e-01  8.5000e-01
  8.5000e-01  8.5000e-01  8.5000e-01  8.5000e-01  8.5000e-01  8.5000e-01  8.5000e-01  8.5000e-01  8.5000e-01  8.5000e-01
  8.5000e-01  8.5000e-01  8.5000e-01  8.5000e-01  8.5000e-01  8.5000e-01  8.5000e-01  8.5000e-01  8.5000e-01  8.5000e-01
  8.5000e-01  8.5000e-01  8.5000e-01  8.5000e-01  8.5000e-01  8.5000e-01  8.5000e-01  8.5000e-01  8.5000e-01  8.5000e-01
  8.5000e-01  8.5000e-01  8.5000e-01  8.5000e-01  8.5000e-01  8.5000e-01  8.5000e-01  8.5000e-01  8.5000e-01  8.5000e-01
  8.5000e-01  8.5000e-01  8.5000e-01  8.5000e-01  8.5000e-01  8.5000e-01  8.5000e-01  8.5000e-01  8.5000e-01  8.5000e-01
  8.5000e-01  8.5000e-01  8.5000e-01  8.5000e-01  8.5000e-01  8.5000e-01  8.5000e-01  8.5000e-01  8.5000e-01  8.5000e-01
  8.5000e-01  8.5000e-01  8.5000e-01  8.5000e-01  8.5000e-01  8.5000e-01  8.5000e-01  8.5000e-01  8.5000e-01  8.5000e-01
  8.5000e-01  8.5000e-01  8.5000e-01  8.5000e-01  8.5000e-01  8.5000e-01  8.5000e-01  8.5000e-01  8.5000e-01  8.5000e-01
  8.5000e-01  8.5000e-01  8.5000e-01  8.5000e-01  8.5000e-01  8.5000e-01  8.5000e-01  8.5000e-01  8.5000e-01  8.5000e-01
  8.5000e-01  8.5000e-01  8.5000e-01  8.5000e-01  8.5000e-01  8.5000e-01  8.5000e-01  8.5000e-01  8.5000e-01  8.5000e-01
  8.5000e-01  8.5000e-01  8.5000e-01  8.5000e-01  8.5000e-01  8.5000e-01  8.5000e-01  8.5000e-01  8.5000e-01  8.5000e-01
  8.5000e-01  8.5000e-01  8.5000e-01  8.5000e-01  8.5000e-01  8.5000e-01  8.5000e-01  8.5000e-01  8.5000e-01  8.5000e-01
  8.5000e-01  8.5000e-01  8.5000e-01  8.5000e-01  8.5000e-01  8.5000e-01  8.5000e-01  8.5000e-01  8.5000e-01  8.5000e-01
  8.5000e-01  8.5000e-01  8.5000e-01  8.5000e-01  8.5000e-01  8.5000e-01  8.5000e-01  8.5000e-01  8.5000e-01  8.5000e-01
  8.5000e-01  8.5000e-01  8.5000e-01  8.5000e-01  8.5000e-01  8.5000e-01  8.5000e-01  8.5000e-01  8.5000e-01  8.5000e-01
  8.5000e-01  8.5000e-01  8.5000e-01  8.5000e-01  8.5000e-01  8.5000e-01  8.5000e-01  8.5000e-01  8.5000e-01  8.5000e-01
  8.5000e-01  8.5000e-01  8.5000e-01  8.5000e-01  8.5000e-01  8.5000e-01  8.5000e-01  8.5000e-01  8.5000e-01  8.5000e-01
  8.5000e-01  8.5000e-01  8.5000e-01  8.5000e-01  8.5000e-01  8.5000e-01  8.5000e-01  8.5000e-01  8.5000e-01  8.5000e-01
  8.5000e-01  8.5000e-01  8.5000e-01  8.5000e-01  8.5000e-01  8.5000e-01  8.5000e-01  8.5000e-01  8.5000e-01  8.5000e-01
  8.5000e-01  8.5000e-01  8.5000e-01  8.5000e-01  8.5000e-01  8.5000e-01  8.5000e-01  8.5000e-01  8.5000e-01  8.5000e-01
  8.5000e-01  8.5000e-01  8.5000e-01  8.5000e-01  8.5000e-01  8.5000e-01  8.5000e-01  8.5000e-01  8.5000e-01  8.5000e-01
  8.5000e-01  8.5000e-01  8.5000e-01  8.5000e-01  8.5000e-01  8.5000e-01  8.5000e-01  8.5000e-01  8.5000e-01  8.5000e-01
  8.5000e-01  8.5000e-01  8.5000e-01  8.5000e-01  8.5000e-01  8.5000e-01  8.5000e-01  8.5000e-01  8.5000e-01  8.5000e-01
  8.5000e-01  8.5000e-01  8.5000e-01  8.5000e-01  8.5000e-01  8.5000e-01  8.5000e-01  8.5000e-01  8.5000e-01  8.5000e-01
  8.5000e-01  8.5000e-01  8.5000e-01  8.5000e-01  8.5000e-01  8.5000e-01  8.5000e-01  8.5000e-01  8.5000e-01  8.5000e-01
  8.5000e-01  8.5000e-01  8.5000e-01  8.5000e-01  8.5000e-01  8.5000e-01  8.5000e-01  8.5000e-01  8.5000e-01  8.5000e-01
  8.5000e-01
        11     1.000(10e12.4)                   -1     VERTICAL HYDRAULIC CONDUCTIVITY Layer   2
  8.5000e-01  8.5000e-01  8.5000e-01  8.5000e-01  8.5000e-01  8.5000e-01  8.5000e-01  8.5000e-01  8.5000e-01  8.5000e-01
  8.5000e-01  8.5000e-01  8.5000e-01  8.5000e-01  8.5000e-01  8.5000e-01  8.5000e-01  8.5000e-01  8.5000e-01  8.5000e-01
  8.5000e-01  8.5000e-01  8.5000e-01  8.5000e-01  8.5000e-01  8.5000e-01  8.5000e-01  8.5000e-01  8.5000e-01  8.5000e-01
  8.5000e-01  8.5000e-01  8.5000e-01  8.5000e-01  8.5000e-01  8.5000e-01  8.5000e-01  8.5000e-01  8.5000e-01  8.5000e-01
  8.5000e-01  8.5000e-01  8.5000e-01  8.5000e-01  8.5000e-01  8.5000e-01  8.5000e-01  8.5000e-01  8.5000e-01  8.5000e-01
  8.5000e-01  8.5000e-01  8.5000e-01  8.5000e-01  8.5000e-01  8.5000e-01  8.5000e-01  8.5000e-01  8.5000e-01  8.5000e-01
  8.5000e-01  8.5000e-01  8.5000e-01  8.5000e-01  8.5000e-01  8.5000e-01  8.5000e-01  8.5000e-01  8.5000e-01  8.5000e-01
  8.5000e-01  8.5000e-01  8.5000e-01  8.5000e-01  8.5000e-01  8.5000e-01  8.5000e-01  8.5000e-01  8.5000e-01  8.5000e-01
  8.5000e-01  8.5000e-01  8.5000e-01  8.5000e-01  8.5000e-01  8.5000e-01  8.5000e-01  8.5000e-01  8.5000e-01  8.5000e-01
  8.5000e-01  8.5000e-01  8.5000e-01  8.5000e-01  8.5000e-01  8.5000e-01  8.5000e-01  8.5000e-01  8.5000e-01  8.5000e-01
  8.5000e-01  8.5000e-01  8.5000e-01  8.5000e-01  8.5000e-01  8.5000e-01  8.5000e-01  8.5000e-01  8.5000e-01  8.5000e-01
  8.5000e-01  8.5000e-01  8.5000e-01  8.5000e-01  8.5000e-01  8.5000e-01  8.5000e-01  8.5000e-01  8.5000e-01  8.5000e-01
  8.5000e-01  8.5000e-01  8.5000e-01  8.5000e-01  8.5000e-01  8.5000e-01  8.5000e-01  8.5000e-01  8.5000e-01  8.5000e-01
  8.5000e-01  8.5000e-01  8.5000e-01  8.5000e-01  8.5000e-01  8.5000e-01  8.5000e-01  8.5000e-01  8.5000e-01  8.5000e-01
  8.5000e-01  8.5000e-01  8.5000e-01  8.5000e-01  8.5000e-01  8.5000e-01  8.5000e-01  8.5000e-01  8.5000e-01  8.5000e-01
  8.5000e-01  8.5000e-01  8.5000e-01  8.5000e-01  8.5000e-01  8.5000e-01  8.5000e-01  8.5000e-01  8.5000e-01  8.5000e-01
  8.5000e-01  8.5000e-01  8.5000e-01  8.5000e-01  8.5000e-01  8.5000e-01  8.5000e-01  8.5000e-01  8.5000e-01  8.5000e-01
  8.5000e-01  8.5000e-01  8.5000e-01  8.5000e-01  8.5000e-01  8.5000e-01  8.5000e-01  8.5000e-01  8.5000e-01  8.5000e-01
  8.5000e-01  8.5000e-01  8.5000e-01  8.5000e-01  8.5000e-01  8.5000e-01  8.5000e-01  8.5000e-01  8.5000e-01  8.5000e-01
  8.5000e-01  8.5000e-01  8.5000e-01  8.5000e-01  8.5000e-01  8.5000e-01  8.5000e-01  8.5000e-01  8.5000e-01  8.5000e-01
  8.5000e-01  8.5000e-01  8.5000e-01  8.5000e-01  8.5000e-01  8.5000e-01  8.5000e-01  8.5000e-01  8.5000e-01  8.5000e-01
  8.5000e-01  8.5000e-01  8.5000e-01  8.5000e-01  8.5000e-01  8.5000e-01  8.5000e-01  8.5000e-01  8.5000e-01  8.5000e-01
  8.5000e-01  8.5000e-01  8.5000e-01  8.5000e-01  8.5000e-01  8.5000e-01  8.5000e-01  8.5000e-01  8.5000e-01  8.5000e-01
  8.5000e-01  8.5000e-01  8.5000e-01  8.5000e-01  8.5000e-01  8.5000e-01  8.5000e-01  8.5000e-01  8.5000e-01  8.5000e-01
  8.5000e-01  8.5000e-01  8.5000e-01  8.5000e-01  8.5000e-01  8.5000e-01  8.5000e-01  8.5000e-01  8.5000e-01  8.5000e-01
  8.5000e-01  8.5000e-01  8.5000e-01  8.5000e-01  8.5000e-01  8.5000e-01  8.5000e-01  8.5000e-01  8.5000e-01  8.5000e-01
  8.5000e-01  8.5000e-01  8.5000e-01  8.5000e-01  8.5000e-01  8.5000e-01  8.5000e-01  8.5000e-01  8.5000e-01  8.5000e-01
  8.5000e-01  8.5000e-01  8.5000e-01  8.5000e-01  8.5000e-01  8.5000e-01  8.5000e-01  8.5000e-01  8.5000e-01  8.5000e-01
  8.5000e-01  8.5000e-01  8.5000e-01  8.5000e-01  8.5000e-01  8.5000e-01  8.5000e-01  8.5000e-01  8.5000e-01  8.5000e-01
  8.5000e-01  8.5000e-01  8.5000e-01  8.5000e-01  8.5000e-01  8.5000e-01  8.5000e-01  8.5000e-01  8.5000e-01  8.5000e-01
  8.5000e-01  8.5000e-01  8.5000e-01  8.5000e-01  8.5000e-01  8.5000e-01  8.5000e-01  8.5000e-01  8.5000e-01  8.5000e-01
  8.5000e-01  8.5000e-01  8.5000e-01  8.5000e-01  8.5000e-01  8.5000e-01  8.5000e-01  8.5000e-01  8.5000e-01  8.5000e-01
  8.5000e-01  8.5000e-01  8.5000e-01  8.5000e-01  8.5000e-01  8.5000e-01  8.5000e-01  8.5000e-01  8.5000e-01  8.5000e-01
  8.5000e-01  8.5000e-01  8.5000e-01  8.5000e-01  8.5000e-01  8.5000e-01  8.5000e-01  8.5000e-01  8.5000e-01  8.5000e-01
  8.5000e-01  8.5000e-01  8.5000e-01  8.5000e-01  8.5000e-01  8.5000e-01  8.5000e-01  8.5000e-01  8.5000e-01  8.5000e-01
  8.5000e-01  8.5000e-01  8.5000e-01  8.5000e-01  8.5000e-01  8.5000e-01  8.5000e-01  8.5000e-01  8.5000e-01  8.5000e-01
  8.5000e-01  8.5000e-01  8.5000e-01  8.5000e-01  8.5000e-01  8.5000e-01  8.5000e-01  8.5000e-01  8.5000e-01  8.5000e-01
  8.5000e-01  8.5000e-01  8.5000e-01  8.5000e-01  8.5000e-01  8.5000e-01  8.5000e-01  8.5000e-01  8.5000e-01  8.5000e-01
  8.5000e-01  8.5000e-01  8.5000e-01  8.5000e-01  8.5000e-01  8.5000e-01  8.5000e-01  8.5000e-01  8.5000e-01  8.5000e-01
  8.5000e-01  8.5000e-01  8.5000e-01  8.5000e-01  8.5000e-01  8.5000e-01  8.5000e-01  8.5000e-01  8.5000e-01  8.5000e-01
  8.5000e-01
CONSTANT 1e-6                                          Ss Layer 1
CONSTANT 0.1                                           SY Layer 1
        11     1.000(10e12.4)                   -1     HYDRAULIC CONDUCTIVITY Layer   3
  8.5000e-01  8.5000e-01  8.5000e-01  8.5000e-01  8.5000e-01  8.5000e-01  8.5000e-01  8.5000e-01  8.5000e-01  8.5000e-01
  8.5000e-01  8.5000e-01  8.5000e-01  8.5000e-01  8.5000e-01  8.5000e-01  8.5000e-01  8.5000e-01  8.5000e-01  8.5000e-01
  8.5000e-01  8.5000e-01  8.5000e-01  8.5000e-01  8.5000e-01  8.5000e-01  8.5000e-01  8.5000e-01  8.5000e-01  8.5000e-01
  8.5000e-01  8.5000e-01  8.5000e-01  8.5000e-01  8.5000e-01  8.5000e-01  8.5000e-01  8.5000e-01  8.5000e-01  8.5000e-01
  8.5000e-01  8.5000e-01  8.5000e-01  8.5000e-01  8.5000e-01  8.5000e-01  8.5000e-01  8.5000e-01  8.5000e-01  8.5000e-01
  8.5000e-01  8.5000e-01  8.5000e-01  8.5000e-01  8.5000e-01  8.5000e-01  8.5000e-01  8.5000e-01  8.5000e-01  8.5000e-01
  8.5000e-01  8.5000e-01  8.5000e-01  8.5000e-01  8.5000e-01  8.5000e-01  8.5000e-01  8.5000e-01  8.5000e-01  8.5000e-01
  8.5000e-01  8.5000e-01  8.5000e-01  8.5000e-01  8.5000e-01  8.5000e-01  8.5000e-01  8.5000e-01  8.5000e-01  8.5000e-01
  8.5000e-01  8.5000e-01  8.5000e-01  8.5000e-01  8.5000e-01  8.5000e-01  8.5000e-01  8.5000e-01  8.5000e-01  8.5000e-01
  8.5000e-01  8.5000e-01  8.5000e-01  8.5000e-01  8.5000e-01  8.5000e-01  8.5000e-01  8.5000e-01  8.5000e-01  8.5000e-01
  8.5000e-01  8.5000e-01  8.5000e-01  8.5000e-01  8.5000e-01  8.5000e-01  8.5000e-01  8.5000e-01  8.5000e-01  8.5000e-01
  8.5000e-01  8.5000e-01  8.5000e-01  8.5000e-01  8.5000e-01  8.5000e-01  8.5000e-01  8.5000e-01  8.5000e-01  8.5000e-01
  8.5000e-01  8.5000e-01  8.5000e-01  8.5000e-01  8.5000e-01  8.5000e-01  8.5000e-01  8.5000e-01  8.5000e-01  8.5000e-01
  8.5000e-01  8.5000e-01  8.5000e-01  8.5000e-01  8.5000e-01  8.5000e-01  8.5000e-01  8.5000e-01  8.5000e-01  8.5000e-01
  8.5000e-01  8.5000e-01  8.5000e-01  8.5000e-01  8.5000e-01  8.5000e-01  8.5000e-01  8.5000e-01  8.5000e-01  8.5000e-01
  8.5000e-01  8.5000e-01  8.5000e-01  8.5000e-01  8.5000e-01  8.5000e-01  8.5000e-01  8.5000e-01  8.5000e-01  8.5000e-01
  8.5000e-01  8.5000e-01  8.5000e-01  8.5000e-01  8.5000e-01  8.5000e-01  8.5000e-01  8.5000e-01  8.5000e-01  8.5000e-01
  8.5000e-01  8.5000e-01  8.5000e-01  8.5000e-01  8.5000e-01  8.5000e-01  8.5000e-01  8.5000e-01  8.5000e-01  8.5000e-01
  8.5000e-01  8.5000e-01  8.5000e-01  8.5000e-01  8.5000e-01  8.5000e-01  8.5000e-01  8.5000e-01  8.5000e-01  8.5000e-01
  8.5000e-01  8.5000e-01  8.5000e-01  8.5000e-01  8.5000e-01  8.5000e-01  8.5000e-01  8.5000e-01  8.5000e-01  8.5000e-01
  8.5000e-01  8.5000e-01  8.5000e-01  8.5000e-01  8.5000e-01  8.5000e-01  8.5000e-01  8.5000e-01  8.5000e-01  8.5000e-01
  8.5000e-01  8.5000e-01  8.5000e-01  8.5000e-01  8.5000e-01  8.5000e-01  8.5000e-01  8.5000e-01  8.5000e-01  8.5000e-01
  8.5000e-01  8.5000e-01  8.5000e-01  8.5000e-01  8.5000e-01  8.5000e-01  8.5000e-01  8.5000e-01  8.5000e-01  8.5000e-01
  8.5000e-01  8.5000e-01  8.5000e-01  8.5000e-01  8.5000e-01  8.5000e-01  8.5000e-01  8.5000e-01  8.5000e-01  8.5000e-01
  8.5000e-01  8.5000e-01  8.5000e-01  8.5000e-01  8.5000e-01  8.5000e-01  8.5000e-01  8.5000e-01  8.5000e-01  8.5000e-01
  8.5000e-01  8.5000e-01  8.5000e-01  8.5000e-01  8.5000e-01  8.5000e-01  8.5000e-01  8.5000e-01  8.5000e-01  8.5000e-01
  8.5000e-01  8.5000e-01  8.5000e-01  8.5000e-01  8.5000e-01  8.5000e-01  8.5000e-01  8.5000e-01  8.5000e-01  8.5000e-01
  8.5000e-01  8.5000e-01  8.5000e-01  8.5000e-01  8.5000e-01  8.5000e-01  8.5000e-01  8.5000e-01  8.5000e-01  8.5000e-01
  8.5000e-01  8.5000e-01  8.5000e-01  8.5000e-01  8.5000e-01  8.5000e-01  8.5000e-01  8.5000e-01  8.5000e-01  8.5000e-01
  8.5000e-01  8.5000e-01  8.5000e-01  8.5000e-01  8.5000e-01  8.5000e-01  8.5000e-01  8.5000e-01  8.5000e-01  8.5000e-01
  8.5000e-01  8.5000e-01  8.5000e-01  8.5000e-01  8.5000e-01  8.5000e-01  8.5000e-01  8.5000e-01  8.5000e-01  8.5000e-01
  8.5000e-01  8.5000e-01  8.5000e-01  8.5000e-01  8.5000e-01  8.5000e-01  8.5000e-01  8.5000e-01  8.5000e-01  8.5000e-01
  8.5000e-01  8.5000e-01  8.5000e-01  8.5000e-01  8.5000e-01  8.5000e-01  8.5000e-01  8.5000e-01  8.5000e-01  8.5000e-01
  8.5000e-01  8.5000e-01  8.5000e-01  8.5000e-01  8.5000e-01  8.5000e-01  8.5000e-01  8.5000e-01  8.5000e-01  8.5000e-01
  8.5000e-01  8.5000e-01  8.5000e-01  8.5000e-01  8.5000e-01  8.5000e-01  8.5000e-01  8.5000e-01  8.5000e-01  8.5000e-01
  8.5000e-01  8.5000e-01  8.5000e-01  8.5000e-01  8.5000e-01  8.5000e-01  8.5000e-01  8.5000e-01  8.5000e-01  8.5000e-01
  8.5000e-01  8.5000e-01  8.5000e-01  8.5000e-01  8.5000e-01  8.5000e-01  8.5000e-01  8.5000e-01  8.5000e-01  8.5000e-01
  8.5000e-01  8.5000e-01  8.5000e-01  8.5000e-01  8.5000e-01  8.5000e-01  8.5000e-01  8.5000e-01  8.5000e-01  8.5000e-01
  8.5000e-01  8.5000e-01  8.5000e-01  8.5000e-01  8.5000e-01  8.5000e-01  8.5000e-01  8.5000e-01  8.5000e-01  8.5000e-01
  8.5000e-01  8.5000e-01  8.5000e-01  8.5000e-01  8.5000e-01  8.5000e-01  8.5000e-01  8.5000e-01  8.5000e-01  8.5000e-01
  8.5000e-01
        11     1.000(10e12.4)                   -1     VERTICAL HYDRAULIC CONDUCTIVITY Layer   3
  8.5000e-01  8.5000e-01  8.5000e-01  8.5000e-01  8.5000e-01  8.5000e-01  8.5000e-01  8.5000e-01  8.5000e-01  8.5000e-01
  8.5000e-01  8.5000e-01  8.5000e-01  8.5000e-01  8.5000e-01  8.5000e-01  8.5000e-01  8.5000e-01  8.5000e-01  8.5000e-01
  8.5000e-01  8.5000e-01  8.5000e-01  8.5000e-01  8.5000e-01  8.5000e-01  8.5000e-01  8.5000e-01  8.5000e-01  8.5000e-01
  8.5000e-01  8.5000e-01  8.5000e-01  8.5000e-01  8.5000e-01  8.5000e-01  8.5000e-01  8.5000e-01  8.5000e-01  8.5000e-01
  8.5000e-01  8.5000e-01  8.5000e-01  8.5000e-01  8.5000e-01  8.5000e-01  8.5000e-01  8.5000e-01  8.5000e-01  8.5000e-01
  8.5000e-01  8.5000e-01  8.5000e-01  8.5000e-01  8.5000e-01  8.5000e-01  8.5000e-01  8.5000e-01  8.5000e-01  8.5000e-01
  8.5000e-01  8.5000e-01  8.5000e-01  8.5000e-01  8.5000e-01  8.5000e-01  8.5000e-01  8.5000e-01  8.5000e-01  8.5000e-01
  8.5000e-01  8.5000e-01  8.5000e-01  8.5000e-01  8.5000e-01  8.5000e-01  8.5000e-01  8.5000e-01  8.5000e-01  8.5000e-01
  8.5000e-01  8.5000e-01  8.5000e-01  8.5000e-01  8.5000e-01  8.5000e-01  8.5000e-01  8.5000e-01  8.5000e-01  8.5000e-01
  8.5000e-01  8.5000e-01  8.5000e-01  8.5000e-01  8.5000e-01  8.5000e-01  8.5000e-01  8.5000e-01  8.5000e-01  8.5000e-01
  8.5000e-01  8.5000e-01  8.5000e-01  8.5000e-01  8.5000e-01  8.5000e-01  8.5000e-01  8.5000e-01  8.5000e-01  8.5000e-01
  8.5000e-01  8.5000e-01  8.5000e-01  8.5000e-01  8.5000e-01  8.5000e-01  8.5000e-01  8.5000e-01  8.5000e-01  8.5000e-01
  8.5000e-01  8.5000e-01  8.5000e-01  8.5000e-01  8.5000e-01  8.5000e-01  8.5000e-01  8.5000e-01  8.5000e-01  8.5000e-01
  8.5000e-01  8.5000e-01  8.5000e-01  8.5000e-01  8.5000e-01  8.5000e-01  8.5000e-01  8.5000e-01  8.5000e-01  8.5000e-01
  8.5000e-01  8.5000e-01  8.5000e-01  8.5000e-01  8.5000e-01  8.5000e-01  8.5000e-01  8.5000e-01  8.5000e-01  8.5000e-01
  8.5000e-01  8.5000e-01  8.5000e-01  8.5000e-01  8.5000e-01  8.5000e-01  8.5000e-01  8.5000e-01  8.5000e-01  8.5000e-01
  8.5000e-01  8.5000e-01  8.5000e-01  8.5000e-01  8.5000e-01  8.5000e-01  8.5000e-01  8.5000e-01  8.5000e-01  8.5000e-01
  8.5000e-01  8.5000e-01  8.5000e-01  8.5000e-01  8.5000e-01  8.5000e-01  8.5000e-01  8.5000e-01  8.5000e-01  8.5000e-01
  8.5000e-01  8.5000e-01  8.5000e-01  8.5000e-01  8.5000e-01  8.5000e-01  8.5000e-01  8.5000e-01  8.5000e-01  8.5000e-01
  8.5000e-01  8.5000e-01  8.5000e-01  8.5000e-01  8.5000e-01  8.5000e-01  8.5000e-01  8.5000e-01  8.5000e-01  8.5000e-01
  8.5000e-01  8.5000e-01  8.5000e-01  8.5000e-01  8.5000e-01  8.5000e-01  8.5000e-01  8.5000e-01  8.5000e-01  8.5000e-01
  8.5000e-01  8.5000e-01  8.5000e-01  8.5000e-01  8.5000e-01  8.5000e-01  8.5000e-01  8.5000e-01  8.5000e-01  8.5000e-01
  8.5000e-01  8.5000e-01  8.5000e-01  8.5000e-01  8.5000e-01  8.5000e-01  8.5000e-01  8.5000e-01  8.5000e-01  8.5000e-01