# MODFLOW-NWT Layer Property Flow (LPF) Package
        50  -1.000000e+030         0        1
 1 3 3 3 3 3 3 3 3 3 3 3 3 3 3 3 3 3 3 3 3 3 3 3 3 3 3 3 3 3 3 3 3 3 3 3 3 3 3 3 3 3 3 3 3 3 3 3 3 3 3 3 3 3 3 3 3 3 3 3 3 3 3 3 3 3 3 3 3 3 3 3 3 3 3 3 3 3 3 3   #LAYTYP
 0 0 0 0 0 0 0 0 0 0 0 0 0 0 0 0 0 0 0 0 0 0 0 0 0 0 0 0 0 0 0 0 0 0 0 0 0 0 0 0 0 0 0 0 0 0 0 0 0 0 0 0 0 0 0 0 0 0 0 0 0 0 0 0 0 0 0 0 0 0 0 0 0 0 0 0 0 0 0 0   #LAYAVG
 1 1 1 1 1 1 1 1 1 1 1 1 1 1 1 1 1 1 1 1 1 1 1 1 1 1 1 1 1 1 1 1 1 1 1 1 1 1 1 1 1 1 1 1 1 1 1 1 1 1 1 1 1 1 1 1 1 1 1 1 1 1 1 1 1 1 1 1 1 1 1 1 1 1 1 1 1 1 1 1   #CHANI
 0 0 0 0 0 0 0 0 0 0 0 0 0 0 0 0 0 0 0 0 0 0 0 0 0 0 0 0 0 0 0 0 0 0 0 0 0 0 0 0 0 0 0 0 0 0 0 0 0 0 0 0 0 0 0 0 0 0 0 0 0 0 0 0 0 0 0 0 0 0 0 0 0 0 0 0 0 0 0 0   #LAYVKA
 0 0 0 0 0 0 0 0 0 0 0 0 0 0 0 0 0 0 0 0 0 0 0 0 0 0 0 0 0 0 0 0 0 0 0 0 0 0 0 0 0 0 0 0 0 0 0 0 0 0 0 0 0 0 0 0 0 0 0 0 0 0 0 0 0 0 0 0 0 0 0 0 0 0 0 0 0 0 0 0   #LAYWET
        11     1.000(10e12.4)                   -1     HYDRAULIC CONDUCTIVITY Layer   1
  8.4758e-01  8.4758e-01  8.4758e-01  8.4758e-01  8.4758e-01  8.4758e-01  8.4758e-01  8.4758e-01  8.4758e-01  8.4758e-01
  8.4758e-01  8.4758e-01  8.4758e-01  8.4758e-01  8.4758e-01  8.4758e-01  8.4758e-01  8.4758e-01  8.4758e-01  8.4758e-01
  8.4758e-01  8.4758e-01  8.4758e-01  8.4758e-01  8.4758e-01  8.4758e-01  8.4758e-01  8.4758e-01  8.4758e-01  8.4758e-01
  8.4758e-01  8.4758e-01  8.4758e-01  8.4758e-01  8.4758e-01  8.4758e-01  8.4758e-01  8.4758e-01  8.4758e-01  8.4758e-01
  8.4758e-01  8.4758e-01  8.4758e-01  8.4758e-01  8.4758e-01  8.4758e-01  8.4758e-01  8.4758e-01  8.4758e-01  8.4758e-01
  8.4758e-01  8.4758e-01  8.4758e-01  8.4758e-01  8.4758e-01  8.4758e-01  8.4758e-01  8.4758e-01  8.4758e-01  8.4758e-01
  8.4758e-01  8.4758e-01  8.4758e-01  8.4758e-01  8.4758e-01  8.4758e-01  8.4758e-01  8.4758e-01  8.4758e-01  8.4758e-01
  8.4758e-01  8.4758e-01  8.4758e-01  8.4758e-01  8.4758e-01  8.4758e-01  8.4758e-01  8.4758e-01  8.4758e-01  8.4758e-01
  8.4758e-01  8.4758e-01  8.4758e-01  8.4758e-01  8.4758e-01  8.4758e-01  8.4758e-01  8.4758e-01  8.4758e-01  8.4758e-01
  8.4758e-01  8.4758e-01  8.4758e-01  8.4758e-01  8.4758e-01  8.4758e-01  8.4758e-01  8.4758e-01  8.4758e-01  8.4758e-01
  8.4758e-01  8.4758e-01  8.4758e-01  8.4758e-01  8.4758e-01  8.4758e-01  8.4758e-01  8.4758e-01  8.4758e-01  8.4758e-01
  8.4758e-01  8.4758e-01  8.4758e-01  8.4758e-01  8.4758e-01  8.4758e-01  8.4758e-01  8.4758e-01  8.4758e-01  8.4758e-01
  8.4758e-01  8.4758e-01  8.4758e-01  8.4758e-01  8.4758e-01  8.4758e-01  8.4758e-01  8.4758e-01  8.4758e-01  8.4758e-01
  8.4758e-01  8.4758e-01  8.4758e-01  8.4758e-01  8.4758e-01  8.4758e-01  8.4758e-01  8.4758e-01  8.4758e-01  8.4758e-01
  8.4758e-01  8.4758e-01  8.4758e-01  8.4758e-01  8.4758e-01  8.4758e-01  8.4758e-01  8.4758e-01  8.4758e-01  8.4758e-01
  8.4758e-01  8.4758e-01  8.4758e-01  8.4758e-01  8.4758e-01  8.4758e-01  8.4758e-01  8.4758e-01  8.4758e-01  8.4758e-01
  8.4758e-01  8.4758e-01  8.4758e-01  8.4758e-01  8.4758e-01  8.4758e-01  8.4758e-01  8.4758e-01  8.4758e-01  8.4758e-01
  8.4758e-01  8.4758e-01  8.4758e-01  8.4758e-01  8.4758e-01  8.4758e-01  8.4758e-01  8.4758e-01  8.4758e-01  8.4758e-01
  8.4758e-01  8.4758e-01  8.4758e-01  8.4758e-01  8.4758e-01  8.4758e-01  8.4758e-01  8.4758e-01  8.4758e-01  8.4758e-01
  8.4758e-01  8.4758e-01  8.4758e-01  8.4758e-01  8.4758e-01  8.4758e-01  8.4758e-01  8.4758e-01  8.4758e-01  8.4758e-01
  8.4758e-01  8.4758e-01  8.4758e-01  8.4758e-01  8.4758e-01  8.4758e-01  8.4758e-01  8.4758e-01  8.4758e-01  8.4758e-01
  8.4758e-01  8.4758e-01  8.4758e-01  8.4758e-01  8.4758e-01  8.4758e-01  8.4758e-01  8.4758e-01  8.4758e-01  8.4758e-01
  8.4758e-01  8.4758e-01  8.4758e-01  8.4758e-01  8.4758e-01  8.4758e-01  8.4758e-01  8.4758e-01  8.4758e-01  8.4758e-01
  8.4758e-01  8.4758e-01  8.4758e-01  8.4758e-01  8.4758e-01  8.4758e-01  8.4758e-01  8.4758e-01  8.4758e-01  8.4758e-01
  8.4758e-01  8.4758e-01  8.4758e-01  8.4758e-01  8.4758e-01  8.4758e-01  8.4758e-01  8.4758e-01  8.4758e-01  8.4758e-01
  8.4758e-01  8.4758e-01  8.4758e-01  8.4758e-01  8.4758e-01  8.4758e-01  8.4758e-01  8.4758e-01  8.4758e-01  8.4758e-01
  8.4758e-01  8.4758e-01  8.4758e-01  8.4758e-01  8.4758e-01  8.4758e-01  8.4758e-01  8.4758e-01  8.4758e-01  8.4758e-01
  8.4758e-01  8.4758e-01  8.4758e-01  8.4758e-01  8.4758e-01  8.4758e-01  8.4758e-01  8.4758e-01  8.4758e-01  8.4758e-01
  8.4758e-01  8.4758e-01  8.4758e-01  8.4758e-01  8.4758e-01  8.4758e-01  8.4758e-01  8.4758e-01  8.4758e-01  8.4758e-01
  8.4758e-01  8.4758e-01  8.4758e-01  8.4758e-01  8.4758e-01  8.4758e-01  8.4758e-01  8.4758e-01  8.4758e-01  8.4758e-01
  8.4758e-01  8.4758e-01  8.4758e-01  8.4758e-01  8.4758e-01  8.4758e-01  8.4758e-01  8.4758e-01  8.4758e-01  8.4758e-01
  8.4758e-01  8.4758e-01  8.4758e-01  8.4758e-01  8.4758e-01  8.4758e-01  8.4758e-01  8.4758e-01  8.4758e-01  8.4758e-01
  8.4758e-01  8.4758e-01  8.4758e-01  8.4758e-01  8.4758e-01  8.4758e-01  8.4758e-01  8.4758e-01  8.4758e-01  8.4758e-01
  8.4758e-01  8.4758e-01  8.4758e-01  8.4758e-01  8.4758e-01  8.4758e-01  8.4758e-01  8.4758e-01  8.4758e-01  8.4758e-01
  8.4758e-01  8.4758e-01  8.4758e-01  8.4758e-01  8.4758e-01  8.4758e-01  8.4758e-01  8.4758e-01  8.4758e-01  8.4758e-01
  8.4758e-01  8.4758e-01  8.4758e-01  8.4758e-01  8.4758e-01  8.4758e-01  8.4758e-01  8.4758e-01  8.4758e-01  8.4758e-01
  8.4758e-01  8.4758e-01  8.4758e-01  8.4758e-01  8.4758e-01  8.4758e-01  8.4758e-01  8.4758e-01  8.4758e-01  8.4758e-01
  8.4758e-01  8.4758e-01  8.4758e-01  8.4758e-01  8.4758e-01  8.4758e-01  8.4758e-01  8.4758e-01  8.4758e-01  8.4758e-01
  8.4758e-01  8.4758e-01  8.4758e-01  8.4758e-01  8.4758e-01  8.4758e-01  8.4758e-01  8.4758e-01  8.4758e-01  8.4758e-01
  8.4758e-01  8.4758e-01  8.4758e-01  8.4758e-01  8.4758e-01  8.4758e-01  8.4758e-01  8.4758e-01  8.4758e-01  8.4758e-01
        11     1.000(10e12.4)                   -1     VERTICAL HYDRAULIC CONDUCTIVITY Layer   1
  8.4758e-01  8.4758e-01  8.4758e-01  8.4758e-01  8.4758e-01  8.4758e-01  8.4758e-01  8.4758e-01  8.4758e-01  8.4758e-01
  8.4758e-01  8.4758e-01  8.4758e-01  8.4758e-01  8.4758e-01  8.4758e-01  8.4758e-01  8.4758e-01  8.4758e-01  8.4758e-01
  8.4758e-01  8.4758e-01  8.4758e-01  8.4758e-01  8.4758e-01  8.4758e-01  8.4758e-01  8.4758e-01  8.4758e-01  8.4758e-01
  8.4758e-01  8.4758e-01  8.4758e-01  8.4758e-01  8.4758e-01  8.4758e-01  8.4758e-01  8.4758e-01  8.4758e-01  8.4758e-01
  8.4758e-01  8.4758e-01  8.4758e-01  8.4758e-01  8.4758e-01  8.4758e-01  8.4758e-01  8.4758e-01  8.4758e-01  8.4758e-01
  8.4758e-01  8.4758e-01  8.4758e-01  8.4758e-01  8.4758e-01  8.4758e-01  8.4758e-01  8.4758e-01  8.4758e-01  8.4758e-01
  8.4758e-01  8.4758e-01  8.4758e-01  8.4758e-01  8.4758e-01  8.4758e-01  8.4758e-01  8.4758e-01  8.4758e-01  8.4758e-01
  8.4758e-01  8.4758e-01  8.4758e-01  8.4758e-01  8.4758e-01  8.4758e-01  8.4758e-01  8.4758e-01  8.4758e-01  8.4758e-01
  8.4758e-01  8.4758e-01  8.4758e-01  8.4758e-01  8.4758e-01  8.4758e-01  8.4758e-01  8.4758e-01  8.4758e-01  8.4758e-01
  8.4758e-01  8.4758e-01  8.4758e-01  8.4758e-01  8.4758e-01  8.4758e-01  8.4758e-01  8.4758e-01  8.4758e-01  8.4758e-01
  8.4758e-01  8.4758e-01  8.4758e-01  8.4758e-01  8.4758e-01  8.4758e-01  8.4758e-01  8.4758e-01  8.4758e-01  8.4758e-01
  8.4758e-01  8.4758e-01  8.4758e-01  8.4758e-01  8.4758e-01  8.4758e-01  8.4758e-01  8.4758e-01  8.4758e-01  8.4758e-01
  8.4758e-01  8.4758e-01  8.4758e-01  8.4758e-01  8.4758e-01  8.4758e-01  8.4758e-01  8.4758e-01  8.4758e-01  8.4758e-01
  8.4758e-01  8.4758e-01  8.4758e-01  8.4758e-01  8.4758e-01  8.4758e-01  8.4758e-01  8.4758e-01  8.4758e-01  8.4758e-01
  8.4758e-01  8.4758e-01  8.4758e-01  8.4758e-01  8.4758e-01  8.4758e-01  8.4758e-01  8.4758e-01  8.4758e-01  8.4758e-01
  8.4758e-01  8.4758e-01  8.4758e-01  8.4758e-01  8.4758e-01  8.4758e-01  8.4758e-01  8.4758e-01  8.4758e-01  8.4758e-01
  8.4758e-01  8.4758e-01  8.4758e-01  8.4758e-01  8.4758e-01  8.4758e-01  8.4758e-01  8.4758e-01  8.4758e-01  8.4758e-01
  8.4758e-01  8.4758e-01  8.4758e-01  8.4758e-01  8.4758e-01  8.4758e-01  8.4758e-01  8.4758e-01  8.4758e-01  8.4758e-01
  8.4758e-01  8.4758e-01  8.4758e-01  8.4758e-01  8.4758e-01  8.4758e-01  8.4758e-01  8.4758e-01  8.4758e-01  8.4758e-01
  8.4758e-01  8.4758e-01  8.4758e-01  8.4758e-01  8.4758e-01  8.4758e-01  8.4758e-01  8.4758e-01  8.4758e-01  8.4758e-01
  8.4758e-01  8.4758e-01  8.4758e-01  8.4758e-01  8.4758e-01  8.4758e-01  8.4758e-01  8.4758e-01  8.4758e-01  8.4758e-01
  8.4758e-01  8.4758e-01  8.4758e-01  8.4758e-01  8.4758e-01  8.4758e-01  8.4758e-01  8.4758e-01  8.4758e-01  8.4758e-01
  8.4758e-01  8.4758e-01  8.4758e-01  8.4758e-01  8.4758e-01  8.4758e-01  8.4758e-01  8.4758e-01  8.4758e-01  8.4758e-01
  8.4758e-01  8.4758e-01  8.4758e-01  8.4758e-01  8.4758e-01  8.4758e-01  8.4758e-01  8.4758e-01  8.4758e-01  8.4758e-01
  8.4758e-01  8.4758e-01  8.4758e-01  8.4758e-01  8.4758e-01  8.4758e-01  8.4758e-01  8.4758e-01  8.4758e-01  8.4758e-01
  8.4758e-01  8.4758e-01  8.4758e-01  8.4758e-01  8.4758e-01  8.4758e-01  8.4758e-01  8.4758e-01  8.4758e-01  8.4758e-01
  8.4758e-01  8.4758e-01  8.4758e-01  8.4758e-01  8.4758e-01  8.4758e-01  8.4758e-01  8.4758e-01  8.4758e-01  8.4758e-01
  8.4758e-01  8.4758e-01  8.4758e-01  8.4758e-01  8.4758e-01  8.4758e-01  8.4758e-01  8.4758e-01  8.4758e-01  8.4758e-01
  8.4758e-01  8.4758e-01  8.4758e-01  8.4758e-01  8.4758e-01  8.4758e-01  8.4758e-01  8.4758e-01  8.4758e-01  8.4758e-01
  8.4758e-01  8.4758e-01  8.4758e-01  8.4758e-01  8.4758e-01  8.4758e-01  8.4758e-01  8.4758e-01  8.4758e-01  8.4758e-01
  8.4758e-01  8.4758e-01  8.4758e-01  8.4758e-01  8.4758e-01  8.4758e-01  8.4758e-01  8.4758e-01  8.4758e-01  8.4758e-01
  8.4758e-01  8.4758e-01  8.4758e-01  8.4758e-01  8.4758e-01  8.4758e-01  8.4758e-01  8.4758e-01  8.4758e-01  8.4758e-01
  8.4758e-01  8.4758e-01  8.4758e-01  8.4758e-01  8.4758e-01  8.4758e-01  8.4758e-01  8.4758e-01  8.4758e-01  8.4758e-01
  8.4758e-01  8.4758e-01  8.4758e-01  8.4758e-01  8.4758e-01  8.4758e-01  8.4758e-01  8.4758e-01  8.4758e-01  8.4758e-01
  8.4758e-01  8.4758e-01  8.4758e-01  8.4758e-01  8.4758e-01  8.4758e-01  8.4758e-01  8.4758e-01  8.4758e-01  8.4758e-01
  8.4758e-01  8.4758e-01  8.4758e-01  8.4758e-01  8.4758e-01  8.4758e-01  8.4758e-01  8.4758e-01  8.4758e-01  8.4758e-01
  8.4758e-01  8.4758e-01  8.4758e-01  8.4758e-01  8.4758e-01  8.4758e-01  8.4758e-01  8.4758e-01  8.4758e-01  8.4758e-01
  8.4758e-01  8.4758e-01  8.4758e-01  8.4758e-01  8.4758e-01  8.4758e-01  8.4758e-01  8.4758e-01  8.4758e-01  8.4758e-01
  8.4758e-01  8.4758e-01  8.4758e-01  8.4758e-01  8.4758e-01  8.4758e-01  8.4758e-01  8.4758e-01  8.4758e-01  8.4758e-01
  8.4758e-01  8.4758e-01  8.4758e-01  8.4758e-01  8.4758e-01  8.4758e-01  8.4758e-01  8.4758e-01  8.4758e-01  8.4758e-01
CONSTANT 1e-6                                          Ss Layer 1
CONSTANT 0.1                                           SY Layer 1
        11     1.000(10e12.4)                   -1     HYDRAULIC CONDUCTIVITY Layer   2
  8.4758e-01  8.4758e-01  8.4758e-01  8.4758e-01  8.4758e-01  8.4758e-01  8.4758e-01  8.4758e-01  8.4758e-01  8.4758e-01
  8.4758e-01  8.4758e-01  8.4758e-01  8.4758e-01  8.4758e-01  8.4758e-01  8.4758e-01  8.4758e-01  8.4758e-01  8.4758e-01
  8.4758e-01  8.4758e-01  8.4758e-01  8.4758e-01  8.4758e-01  8.4758e-01  8.4758e-01  8.4758e-01  8.4758e-01  8.4758e-01
  8.4758e-01  8.4758e-01  8.4758e-01  8.4758e-01  8.4758e-01  8.4758e-01  8.4758e-01  8.4758e-01  8.4758e-01  8.4758e-01
  8.4758e-01  8.4758e-01  8.4758e-01  8.4758e-01  8.4758e-01  8.4758e-01  8.4758e-01  8.4758e-01  8.4758e-01  8.4758e-01
  8.4758e-01  8.4758e-01  8.4758e-01  8.4758e-01  8.4758e-01  8.4758e-01  8.4758e-01  8.4758e-01  8.4758e-01  8.4758e-01
  8.4758e-01  8.4758e-01  8.4758e-01  8.4758e-01  8.4758e-01  8.4758e-01  8.4758e-01  8.4758e-01  8.4758e-01  8.4758e-01
  8.4758e-01  8.4758e-01  8.4758e-01  8.4758e-01  8.4758e-01  8.4758e-01  8.4758e-01  8.4758e-01  8.4758e-01  8.4758e-01
  8.4758e-01  8.4758e-01  8.4758e-01  8.4758e-01  8.4758e-01  8.4758e-01  8.4758e-01  8.4758e-01  8.4758e-01  8.4758e-01
  8.4758e-01  8.4758e-01  8.4758e-01  8.4758e-01  8.4758e-01  8.4758e-01  8.4758e-01  8.4758e-01  8.4758e-01  8.4758e-01
  8.4758e-01  8.4758e-01  8.4758e-01  8.4758e-01  8.4758e-01  8.4758e-01  8.4758e-01  8.4758e-01  8.4758e-01  8.4758e-01
  8.4758e-01  8.4758e-01  8.4758e-01  8.4758e-01  8.4758e-01  8.4758e-01  8.4758e-01  8.4758e-01  8.4758e-01  8.4758e-01
  8.4758e-01  8.4758e-01  8.4758e-01  8.4758e-01  8.4758e-01  8.4758e-01  8.4758e-01  8.4758e-01  8.4758e-01  8.4758e-01
  8.4758e-01  8.4758e-01  8.4758e-01  8.4758e-01  8.4758e-01  8.4758e-01  8.4758e-01  8.4758e-01  8.4758e-01  8.4758e-01
  8.4758e-01  8.4758e-01  8.4758e-01  8.4758e-01  8.4758e-01  8.4758e-01  8.4758e-01  8.4758e-01  8.4758e-01  8.4758e-01
  8.4758e-01  8.4758e-01  8.4758e-01  8.4758e-01  8.4758e-01  8.4758e-01  8.4758e-01  8.4758e-01  8.4758e-01  8.4758e-01
  8.4758e-01  8.4758e-01  8.4758e-01  8.4758e-01  8.4758e-01  8.4758e-01  8.4758e-01  8.4758e-01  8.4758e-01  8.4758e-01
  8.4758e-01  8.4758e-01  8.4758e-01  8.4758e-01  8.4758e-01  8.4758e-01  8.4758e-01  8.4758e-01  8.4758e-01  8.4758e-01
  8.4758e-01  8.4758e-01  8.4758e-01  8.4758e-01  8.4758e-01  8.4758e-01  8.4758e-01  8.4758e-01  8.4758e-01  8.4758e-01
  8.4758e-01  8.4758e-01  8.4758e-01  8.4758e-01  8.4758e-01  8.4758e-01  8.4758e-01  8.4758e-01  8.4758e-01  8.4758e-01
  8.4758e-01  8.4758e-01  8.4758e-01  8.4758e-01  8.4758e-01  8.4758e-01  8.4758e-01  8.4758e-01  8.4758e-01  8.4758e-01
  8.4758e-01  8.4758e-01  8.4758e-01  8.4758e-01  8.4758e-01  8.4758e-01  8.4758e-01  8.4758e-01  8.4758e-01  8.4758e-01
  8.4758e-01  8.4758e-01  8.4758e-01  8.4758e-01  8.4758e-01  8.4758e-01  8.4758e-01  8.4758e-01  8.4758e-01  8.4758e-01
  8.4758e-01  8.4758e-01  8.4758e-01  8.4758e-01  8.4758e-01  8.4758e-01  8.4758e-01  8.4758e-01  8.4758e-01  8.4758e-01
  8.4758e-01  8.4758e-01  8.4758e-01  8.4758e-01  8.4758e-01  8.4758e-01  8.4758e-01  8.4758e-01  8.4758e-01  8.4758e-01
  8.4758e-01  8.4758e-01  8.4758e-01  8.4758e-01  8.4758e-01  8.4758e-01  8.4758e-01  8.4758e-01  8.4758e-01  8.4758e-01
  8.4758e-01  8.4758e-01  8.4758e-01  8.4758e-01  8.4758e-01  8.4758e-01  8.4758e-01  8.4758e-01  8.4758e-01  8.4758e-01
  8.4758e-01  8.4758e-01  8.4758e-01  8.4758e-01  8.4758e-01  8.4758e-01  8.4758e-01  8.4758e-01  8.4758e-01  8.4758e-01
  8.4758e-01  8.4758e-01  8.4758e-01  8.4758e-01  8.4758e-01  8.4758e-01  8.4758e-01  8.4758e-01  8.4758e-01  8.4758e-01
  8.4758e-01  8.4758e-01  8.4758e-01  8.4758e-01  8.4758e-01  8.4758e-01  8.4758e-01  8.4758e-01  8.4758e-01  8.4758e-01
  8.4758e-01  8.4758e-01  8.4758e-01  8.4758e-01  8.4758e-01  8.4758e-01  8.4758e-01  8.4758e-01  8.4758e-01  8.4758e-01
  8.4758e-01  8.4758e-01  8.4758e-01  8.4758e-01  8.4758e-01  8.4758e-01  8.4758e-01  8.4758e-01  8.4758e-01  8.4758e-01
  8.4758e-01  8.4758e-01  8.4758e-01  8.4758e-01  8.4758e-01  8.4758e-01  8.4758e-01  8.4758e-01  8.4758e-01  8.4758e-01
  8.4758e-01  8.4758e-01  8.4758e-01  8.4758e-01  8.4758e-01  8.4758e-01  8.4758e-01  8.4758e-01  8.4758e-01  8.4758e-01
  8.4758e-01  8.4758e-01  8.4758e-01  8.4758e-01  8.4758e-01  8.4758e-01  8.4758e-01  8.4758e-01  8.4758e-01  8.4758e-01
  8.4758e-01  8.4758e-01  8.4758e-01  8.4758e-01  8.4758e-01  8.4758e-01  8.4758e-01  8.4758e-01  8.4758e-01  8.4758e-01
  8.4758e-01  8.4758e-01  8.4758e-01  8.4758e-01  8.4758e-01  8.4758e-01  8.4758e-01  8.4758e-01  8.4758e-01  8.4758e-01
  8.4758e-01  8.4758e-01  8.4758e-01  8.4758e-01  8.4758e-01  8.4758e-01  8.4758e-01  8.4758e-01  8.4758e-01  8.4758e-01
  8.4758e-01  8.4758e-01  8.4758e-01  8.4758e-01  8.4758e-01  8.4758e-01  8.4758e-01  8.4758e-01  8.4758e-01  8.4758e-01
  8.4758e-01  8.4758e-01  8.4758e-01  8.4758e-01  8.4758e-01  8.4758e-01  8.4758e-01  8.4758e-01  8.4758e-01  8.4758e-01
        11     1.000(10e12.4)                   -1     VERTICAL HYDRAULIC CONDUCTIVITY Layer   2
  8.4758e-01  8.4758e-01  8.4758e-01  8.4758e-01  8.4758e-01  8.4758e-01  8.4758e-01  8.4758e-01  8.4758e-01  8.4758e-01
  8.4758e-01  8.4758e-01  8.4758e-01  8.4758e-01  8.4758e-01  8.4758e-01  8.4758e-01  8.4758e-01  8.4758e-01  8.4758e-01
  8.4758e-01  8.4758e-01  8.4758e-01  8.4758e-01  8.4758e-01  8.4758e-01  8.4758e-01  8.4758e-01  8.4758e-01  8.4758e-01
  8.4758e-01  8.4758e-01  8.4758e-01  8.4758e-01  8.4758e-01  8.4758e-01  8.4758e-01  8.4758e-01  8.4758e-01  8.4758e-01
  8.4758e-01  8.4758e-01  8.4758e-01  8.4758e-01  8.4758e-01  8.4758e-01  8.4758e-01  8.4758e-01  8.4758e-01  8.4758e-01
  8.4758e-01  8.4758e-01  8.4758e-01  8.4758e-01  8.4758e-01  8.4758e-01  8.4758e-01  8.4758e-01  8.4758e-01  8.4758e-01
  8.4758e-01  8.4758e-01  8.4758e-01  8.4758e-01  8.4758e-01  8.4758e-01  8.4758e-01  8.4758e-01  8.4758e-01  8.4758e-01
  8.4758e-01  8.4758e-01  8.4758e-01  8.4758e-01  8.4758e-01  8.4758e-01  8.4758e-01  8.4758e-01  8.4758e-01  8.4758e-01
  8.4758e-01  8.4758e-01  8.4758e-01  8.4758e-01  8.4758e-01  8.4758e-01  8.4758e-01  8.4758e-01  8.4758e-01  8.4758e-01
  8.4758e-01  8.4758e-01  8.4758e-01  8.4758e-01  8.4758e-01  8.4758e-01  8.4758e-01  8.4758e-01  8.4758e-01  8.4758e-01
  8.4758e-01  8.4758e-01  8.4758e-01  8.4758e-01  8.4758e-01  8.4758e-01  8.4758e-01  8.4758e-01  8.4758e-01  8.4758e-01
  8.4758e-01  8.4758e-01  8.4758e-01  8.4758e-01  8.4758e-01  8.4758e-01  8.4758e-01  8.4758e-01  8.4758e-01  8.4758e-01
  8.4758e-01  8.4758e-01  8.4758e-01  8.4758e-01  8.4758e-01  8.4758e-01  8.4758e-01  8.4758e-01  8.4758e-01  8.4758e-01
  8.4758e-01  8.4758e-01  8.4758e-01  8.4758e-01  8.4758e-01  8.4758e-01  8.4758e-01  8.4758e-01  8.4758e-01  8.4758e-01
  8.4758e-01  8.4758e-01  8.4758e-01  8.4758e-01  8.4758e-01  8.4758e-01  8.4758e-01  8.4758e-01  8.4758e-01  8.4758e-01
  8.4758e-01  8.4758e-01  8.4758e-01  8.4758e-01  8.4758e-01  8.4758e-01  8.4758e-01  8.4758e-01  8.4758e-01  8.4758e-01
  8.4758e-01  8.4758e-01  8.4758e-01  8.4758e-01  8.4758e-01  8.4758e-01  8.4758e-01  8.4758e-01  8.4758e-01  8.4758e-01
  8.4758e-01  8.4758e-01  8.4758e-01  8.4758e-01  8.4758e-01  8.4758e-01  8.4758e-01  8.4758e-01  8.4758e-01  8.4758e-01
  8.4758e-01  8.4758e-01  8.4758e-01  8.4758e-01  8.4758e-01  8.4758e-01  8.4758e-01  8.4758e-01  8.4758e-01  8.4758e-01
  8.4758e-01  8.4758e-01  8.4758e-01  8.4758e-01  8.4758e-01  8.4758e-01  8.4758e-01  8.4758e-01  8.4758e-01  8.4758e-01
  8.4758e-01  8.4758e-01  8.4758e-01  8.4758e-01  8.4758e-01  8.4758e-01  8.4758e-01  8.4758e-01  8.4758e-01  8.4758e-01
  8.4758e-01  8.4758e-01  8.4758e-01  8.4758e-01  8.4758e-01  8.4758e-01  8.4758e-01  8.4758e-01  8.4758e-01  8.4758e-01
  8.4758e-01  8.4758e-01  8.4758e-01  8.4758e-01  8.4758e-01  8.4758e-01  8.4758e-01  8.4758e-01  8.4758e-01  8.4758e-01
  8.4758e-01  8.4758e-01  8.4758e-01  8.4758e-01  8.4758e-01  8.4758e-01  8.4758e-01  8.4758e-01  8.4758e-01  8.4758e-01
  8.4758e-01  8.4758e-01  8.4758e-01  8.4758e-01  8.4758e-01  8.4758e-01  8.4758e-01  8.4758e-01  8.4758e-01  8.4758e-01
  8.4758e-01  8.4758e-01  8.4758e-01  8.4758e-01  8.4758e-01  8.4758e-01  8.4758e-01  8.4758e-01  8.4758e-01  8.4758e-01
  8.4758e-01  8.4758e-01  8.4758e-01  8.4758e-01  8.4758e-01  8.4758e-01  8.4758e-01  8.4758e-01  8.4758e-01  8.4758e-01
  8.4758e-01  8.4758e-01  8.4758e-01  8.4758e-01  8.4758e-01  8.4758e-01  8.4758e-01  8.4758e-01  8.4758e-01  8.4758e-01
  8.4758e-01  8.4758e-01  8.4758e-01  8.4758e-01  8.4758e-01  8.4758e-01  8.4758e-01  8.4758e-01  8.4758e-01  8.4758e-01
  8.4758e-01  8.4758e-01  8.4758e-01  8.4758e-01  8.4758e-01  8.4758e-01  8.4758e-01  8.4758e-01  8.4758e-01  8.4758e-01
  8.4758e-01  8.4758e-01  8.4758e-01  8.4758e-01  8.4758e-01  8.4758e-01  8.4758e-01  8.4758e-01  8.4758e-01  8.4758e-01
  8.4758e-01  8.4758e-01  8.4758e-01  8.4758e-01  8.4758e-01  8.4758e-01  8.4758e-01  8.4758e-01  8.4758e-01  8.4758e-01
  8.4758e-01  8.4758e-01  8.4758e-01  8.4758e-01  8.4758e-01  8.4758e-01  8.4758e-01  8.4758e-01  8.4758e-01  8.4758e-01
  8.4758e-01  8.4758e-01  8.4758e-01  8.4758e-01  8.4758e-01  8.4758e-01  8.4758e-01  8.4758e-01  8.4758e-01  8.4758e-01
  8.4758e-01  8.4758e-01  8.4758e-01  8.4758e-01  8.4758e-01  8.4758e-01  8.4758e-01  8.4758e-01  8.4758e-01  8.4758e-01
  8.4758e-01  8.4758e-01  8.4758e-01  8.4758e-01  8.4758e-01  8.4758e-01  8.4758e-01  8.4758e-01  8.4758e-01  8.4758e-01
  8.4758e-01  8.4758e-01  8.4758e-01  8.4758e-01  8.4758e-01  8.4758e-01  8.4758e-01  8.4758e-01  8.4758e-01  8.4758e-01
  8.4758e-01  8.4758e-01  8.4758e-01  8.4758e-01  8.4758e-01  8.4758e-01  8.4758e-01  8.4758e-01  8.4758e-01  8.4758e-01
  8.4758e-01  8.4758e-01  8.4758e-01  8.4758e-01  8.4758e-01  8.4758e-01  8.4758e-01  8.4758e-01  8.4758e-01  8.4758e-01
  8.4758e-01  8.4758e-01  8.4758e-01  8.4758e-01  8.4758e-01  8.4758e-01  8.4758e-01  8.4758e-01  8.4758e-01  8.4758e-01
CONSTANT 1e-6                                          Ss Layer 2
CONSTANT 0.1                                           SY Layer 2
        11     1.000(10e12.4)                   -1     HYDRAULIC CONDUCTIVITY Layer   3
  8.4758e-01  8.4758e-01  8.4758e-01  8.4758e-01  8.4758e-01  8.4758e-01  8.4758e-01  8.4758e-01  8.4758e-01  8.4758e-01
  8.4758e-01  8.4758e-01  8.4758e-01  8.4758e-01  8.4758e-01  8.4758e-01  8.4758e-01  8.4758e-01  8.4758e-01  8.4758e-01
  8.4758e-01  8.4758e-01  8.4758e-01  8.4758e-01  8.4758e-01  8.4758e-01  8.4758e-01  8.4758e-01  8.4758e-01  8.4758e-01
  8.4758e-01  8.4758e-01  8.4758e-01  8.4758e-01  8.4758e-01  8.4758e-01  8.4758e-01  8.4758e-01  8.4758e-01  8.4758e-01
  8.4758e-01  8.4758e-01  8.4758e-01  8.4758e-01  8.4758e-01  8.4758e-01  8.4758e-01  8.4758e-01  8.4758e-01  8.4758e-01
  8.4758e-01  8.4758e-01  8.4758e-01  8.4758e-01  8.4758e-01  8.4758e-01  8.4758e-01  8.4758e-01  8.4758e-01  8.4758e-01
  8.4758e-01  8.4758e-01  8.4758e-01  8.4758e-01  8.4758e-01  8.4758e-01  8.4758e-01  8.4758e-01  8.4758e-01  8.4758e-01
  8.4758e-01  8.4758e-01  8.4758e-01  8.4758e-01  8.4758e-01  8.4758e-01  8.4758e-01  8.4758e-01  8.4758e-01  8.4758e-01
  8.4758e-01  8.4758e-01  8.4758e-01  8.4758e-01  8.4758e-01  8.4758e-01  8.4758e-01  8.4758e-01  8.4758e-01  8.4758e-01
  8.4758e-01  8.4758e-01  8.4758e-01  8.4758e-01  8.4758e-01  8.4758e-01  8.4758e-01  8.4758e-01  8.4758e-01  8.4758e-01
  8.4758e-01  8.4758e-01  8.4758e-01  8.4758e-01  8.4758e-01  8.4758e-01  8.4758e-01  8.4758e-01  8.4758e-01  8.4758e-01
  8.4758e-01  8.4758e-01  8.4758e-01  8.4758e-01  8.4758e-01  8.4758e-01  8.4758e-01  8.4758e-01  8.4758e-01  8.4758e-01
  8.4758e-01  8.4758e-01  8.4758e-01  8.4758e-01  8.4758e-01  8.4758e-01  8.4758e-01  8.4758e-01  8.4758e-01  8.4758e-01
  8.4758e-01  8.4758e-01  8.4758e-01  8.4758e-01  8.4758e-01  8.4758e-01  8.4758e-01  8.4758e-01  8.4758e-01  8.4758e-01
  8.4758e-01  8.4758e-01  8.4758e-01  8.4758e-01  8.4758e-01  8.4758e-01  8.4758e-01  8.4758e-01  8.4758e-01  8.4758e-01
  8.4758e-01  8.4758e-01  8.4758e-01  8.4758e-01  8.4758e-01  8.4758e-01  8.4758e-01  8.4758e-01  8.4758e-01  8.4758e-01
  8.4758e-01  8.4758e-01  8.4758e-01  8.4758e-01  8.4758e-01  8.4758e-01  8.4758e-01  8.4758e-01  8.4758e-01  8.4758e-01
  8.4758e-01  8.4758e-01  8.4758e-01  8.4758e-01  8.4758e-01  8.4758e-01  8.4758e-01  8.4758e-01  8.4758e-01  8.4758e-01
  8.4758e-01  8.4758e-01  8.4758e-01  8.4758e-01  8.4758e-01  8.4758e-01  8.4758e-01  8.4758e-01  8.4758e-01  8.4758e-01
  8.4758e-01  8.4758e-01  8.4758e-01  8.4758e-01  8.4758e-01  8.4758e-01  8.4758e-01  8.4758e-01  8.4758e-01  8.4758e-01
  8.4758e-01  8.4758e-01  8.4758e-01  8.4758e-01  8.4758e-01  8.4758e-01  8.4758e-01  8.4758e-01  8.4758e-01  8.4758e-01
  8.4758e-01  8.4758e-01  8.4758e-01  8.4758e-01  8.4758e-01  8.4758e-01  8.4758e-01  8.4758e-01  8.4758e-01  8.4758e-01
  8.4758e-01  8.4758e-01  8.4758e-01  8.4758e-01  8.4758e-01  8.4758e-01  8.4758e-01  8.4758e-01  8.4758e-01  8.4758e-01
  8.4758e-01  8.4758e-01  8.4758e-01  8.4758e-01  8.4758e-01  8.4758e-01  8.4758e-01  8.4758e-01  8.4758e-01  8.4758e-01
  8.4758e-01  8.4758e-01  8.4758e-01  8.4758e-01  8.4758e-01  8.4758e-01  8.4758e-01  8.4758e-01  8.4758e-01  8.4758e-01
  8.4758e-01  8.4758e-01  8.4758e-01  8.4758e-01  8.4758e-01  8.4758e-01  8.4758e-01  8.4758e-01  8.4758e-01  8.4758e-01
  8.4758e-01  8.4758e-01  8.4758e-01  8.4758e-01  8.4758e-01  8.4758e-01  8.4758e-01  8.4758e-01  8.4758e-01  8.4758e-01
  8.4758e-01  8.4758e-01  8.4758e-01  8.4758e-01  8.4758e-01  8.4758e-01  8.4758e-01  8.4758e-01  8.4758e-01  8.4758e-01
  8.4758e-01  8.4758e-01  8.4758e-01  8.4758e-01  8.4758e-01  8.4758e-01  8.4758e-01  8.4758e-01  8.4758e-01  8.4758e-01
  8.4758e-01  8.4758e-01  8.4758e-01  8.4758e-01  8.4758e-01  8.4758e-01  8.4758e-01  8.4758e-01  8.4758e-01  8.4758e-01
  8.4758e-01  8.4758e-01  8.4758e-01  8.4758e-01  8.4758e-01  8.4758e-01  8.4758e-01  8.4758e-01  8.4758e-01  8.4758e-01
  8.4758e-01  8.4758e-01  8.4758e-01  8.4758e-01  8.4758e-01  8.4758e-01  8.4758e-01  8.4758e-01  8.4758e-01  8.4758e-01
  8.4758e-01  8.4758e-01  8.4758e-01  8.4758e-01  8.4758e-01  8.4758e-01  8.4758e-01  8.4758e-01  8.4758e-01  8.4758e-01
  8.4758e-01  8.4758e-01  8.4758e-01  8.4758e-01  8.4758e-01  8.4758e-01  8.4758e-01  8.4758e-01  8.4758e-01  8.4758e-01
  8.4758e-01  8.4758e-01  8.4758e-01  8.4758e-01  8.4758e-01  8.4758e-01  8.4758e-01  8.4758e-01  8.4758e-01  8.4758e-01
  8.4758e-01  8.4758e-01  8.4758e-01  8.4758e-01  8.4758e-01  8.4758e-01  8.4758e-01  8.4758e-01  8.4758e-01  8.4758e-01
  8.4758e-01  8.4758e-01  8.4758e-01  8.4758e-01  8.4758e-01  8.4758e-01  8.4758e-01  8.4758e-01  8.4758e-01  8.4758e-01
  8.4758e-01  8.4758e-01  8.4758e-01  8.4758e-01  8.4758e-01  8.4758e-01  8.4758e-01  8.4758e-01  8.4758e-01  8.4758e-01
  8.4758e-01  8.4758e-01  8.4758e-01  8.4758e-01  8.4758e-01  8.4758e-01  8.4758e-01  8.4758e-01  8.4758e-01  8.4758e-01
  8.4758e-01  8.4758e-01  8.4758e-01  8.4758e-01  8.4758e-01  8.4758e-01  8.4758e-01  8.4758e-01  8.4758e-01  8.4758e-01
        11     1.000(10e12.4)                   -1     VERTICAL HYDRAULIC CONDUCTIVITY Layer   3
  8.4758e-01  8.4758e-01  8.4758e-01  8.4758e-01  8.4758e-01  8.4758e-01  8.4758e-01  8.4758e-01  8.4758e-01  8.4758e-01
  8.4758e-01  8.4758e-01  8.4758e-01  8.4758e-01  8.4758e-01  8.4758e-01  8.4758e-01  8.4758e-01  8.4758e-01  8.4758e-01
  8.4758e-01  8.4758e-01  8.4758e-01  8.4758e-01  8.4758e-01  8.4758e-01  8.4758e-01  8.4758e-01  8.4758e-01  8.4758e-01
  8.4758e-01  8.4758e-01  8.4758e-01  8.4758e-01  8.4758e-01  8.4758e-01  8.4758e-01  8.4758e-01  8.4758e-01  8.4758e-01
  8.4758e-01  8.4758e-01  8.4758e-01  8.4758e-01  8.4758e-01  8.4758e-01  8.4758e-01  8.4758e-01  8.4758e-01  8.4758e-01
  8.4758e-01  8.4758e-01  8.4758e-01  8.4758e-01  8.4758e-01  8.4758e-01  8.4758e-01  8.4758e-01  8.4758e-01  8.4758e-01
  8.4758e-01  8.4758e-01  8.4758e-01  8.4758e-01  8.4758e-01  8.4758e-01  8.4758e-01  8.4758e-01  8.4758e-01  8.4758e-01
  8.4758e-01  8.4758e-01  8.4758e-01  8.4758e-01  8.4758e-01  8.4758e-01  8.4758e-01  8.4758e-01  8.4758e-01  8.4758e-01
  8.4758e-01  8.4758e-01  8.4758e-01  8.4758e-01  8.4758e-01  8.4758e-01  8.4758e-01  8.4758e-01  8.4758e-01  8.4758e-01
  8.4758e-01  8.4758e-01  8.4758e-01  8.4758e-01  8.4758e-01  8.4758e-01  8.4758e-01  8.4758e-01  8.4758e-01  8.4758e-01
  8.4758e-01  8.4758e-01  8.4758e-01  8.4758e-01  8.4758e-01  8.4758e-01  8.4758e-01  8.4758e-01  8.4758e-01  8.4758e-01
  8.4758e-01  8.4758e-01  8.4758e-01  8.4758e-01  8.4758e-01  8.4758e-01  8.4758e-01  8.4758e-01  8.4758e-01  8.4758e-01
  8.4758e-01  8.4758e-01  8.4758e-01  8.4758e-01  8.4758e-01  8.4758e-01  8.4758e-01  8.4758e-01  8.4758e-01  8.4758e-01
  8.4758e-01  8.4758e-01  8.4758e-01  8.4758e-01  8.4758e-01  8.4758e-01  8.4758e-01  8.4758e-01  8.4758e-01  8.4758e-01
  8.4758e-01  8.4758e-01  8.4758e-01  8.4758e-01  8.4758e-01  8.4758e-01  8.4758e-01  8.4758e-01  8.4758e-01  8.4758e-01
  8.4758e-01  8.4758e-01  8.4758e-01  8.4758e-01  8.4758e-01  8.4758e-01  8.4758e-01  8.4758e-01  8.4758e-01  8.4758e-01
  8.4758e-01  8.4758e-01  8.4758e-01  8.4758e-01  8.4758e-01  8.4758e-01  8.4758e-01  8.4758e-01  8.4758e-01  8.4758e-01
  8.4758e-01  8.4758e-01  8.4758e-01  8.4758e-01  8.4758e-01  8.4758e-01  8.4758e-01  8.4758e-01  8.4758e-01  8.4758e-01
  8.4758e-01  8.4758e-01  8.4758e-01  8.4758e-01  8.4758e-01  8.4758e-01  8.4758e-01  8.4758e-01  8.4758e-01  8.4758e-01
  8.4758e-01  8.4758e-01  8.4758e-01  8.4758e-01  8.4758e-01  8.4758e-01  8.4758e-01  8.4758e-01  8.4758e-01  8.4758e-01
  8.4758e-01  8.4758e-01  8.4758e-01  8.4758e-01  8.4758e-01  8.4758e-01  8.4758e-01  8.4758e-01  8.4758e-01  8.4758e-01
  8.4758e-01  8.4758e-01  8.4758e-01  8.4758e-01  8.4758e-01  8.4758e-01  8.4758e-01  8.4758e-01  8.4758e-01  8.4758e-01
  8.4758e-01  8.4758e-01  8.4758e-01  8.4758e-01  8.4758e-01  8.4758e-01  8.4758e-01  8.4758e-01  8.4758e-01  8.4758e-01
  8.4758e-01  8.4758e-01  8.4758e-01  8.4758e-01  8.4758e-01  8.4758e-01  8.4758e-01  8.4758e-01  8.4758e-01  8.4758e-01
  8.4758e-01  8.4758e-01  8.4758e-01  8.4758e-01  8.4758e-01  8.4758e-01  8.4758e-01  8.4758e-01  8.4758e-01  8.4758e-01
  8.4758e-01  8.4758e-01  8.4758e-01  8.4758e-01  8.4758e-01  8.4758e-01  8.4758e-01  8.4758e-01  8.4758e-01  8.4758e-01
  8.4758e-01  8.4758e-01  8.4758e-01  8.4758e-01  8.4758e-01  8.4758e-01  8.4758e-01  8.4758e-01  8.4758e-01  8.4758e-01
  8.4758e-01  8.4758e-01  8.4758e-01  8.4758e-01  8.4758e-01  8.4758e-01  8.4758e-01  8.4758e-01  8.4758e-01  8.4758e-01
  8.4758e-01  8.4758e-01  8.4758e-01  8.4758e-01  8.4758e-01  8.4758e-01  8.4758e-01  8.4758e-01  8.4758e-01  8.4758e-01
  8.4758e-01  8.4758e-01  8.4758e-01  8.4758e-01  8.4758e-01  8.4758e-01  8.4758e-01  8.4758e-01  8.4758e-01  8.4758e-01
  8.4758e-01  8.4758e-01  8.4758e-01  8.4758e-01  8.4758e-01  8.4758e-01  8.4758e-01  8.4758e-01  8.4758e-01  8.4758e-01
  8.4758e-01  8.4758e-01  8.4758e-01  8.4758e-01  8.4758e-01  8.4758e-01  8.4758e-01  8.4758e-01  8.4758e-01  8.4758e-01
  8.4758e-01  8.4758e-01  8.4758e-01  8.4758e-01  8.4758e-01  8.4758e-01  8.4758e-01  8.4758e-01  8.4758e-01  8.4758e-01