# MODFLOW-NWT Discretization File
#NLAY NROW NCOL NPER  ITMUNI LENUNI  (ITMUNI = 4: days; LENUNI = 0: Undefined)
   80    1  400    3       4      0
 0 0 0 0 0 0 0 0 0 0 0 0 0 0 0 0 0 0 0 0 0 0 0 0 0 0 0 0 0 0 0 0 0 0 0 0 0 0 0 0 0 0 0 0 0 0 0 0 0 0 0 0 0 0 0 0 0 0 0 0 0 0 0 0 0 0 0 0 0 0 0 0 0 0 0 0 0 0 0 0
         0    25.000(10E12.4)                    0     DELTA-X or C
         0     1.000(10E12.4)                    0     DELTA-Y or R
         0  2000.000(10e12.4)                   -1     TOP of Model
         0  1975.000(10e12.4)                   -1     BOTTOM of Layer   1
         0  1950.000(10e12.4)                   -1     BOTTOM of Layer   2
         0  1925.000(10e12.4)                   -1     BOTTOM of Layer   3
         0  1900.000(10e12.4)                   -1     BOTTOM of Layer   4
         0  1875.000(10e12.4)                   -1     BOTTOM of Layer   5
         0  1850.000(10e12.4)                   -1     BOTTOM of Layer   6
         0  1825.000(10e12.4)                   -1     BOTTOM of Layer   7
         0  1800.000(10e12.4)                   -1     BOTTOM of Layer   8
         0  1775.000(10e12.4)                   -1     BOTTOM of Layer   9
         0  1750.000(10e12.4)                   -1     BOTTOM of Layer  10
         0  1725.000(10e12.4)                   -1     BOTTOM of Layer  11
         0  1700.000(10e12.4)                   -1     BOTTOM of Layer  12
         0  1675.000(10e12.4)                   -1     BOTTOM of Layer  13
         0  1650.000(10e12.4)                   -1     BOTTOM of Layer  14
         0  1625.000(10e12.4)                   -1     BOTTOM of Layer  15
         0  1600.000(10e12.4)                   -1     BOTTOM of Layer  16
         0  1575.000(10e12.4)                   -1     BOTTOM of Layer  17
         0  1550.000(10e12.4)                   -1     BOTTOM of Layer  18
         0  1525.000(10e12.4)                   -1     BOTTOM of Layer  19
         0  1500.000(10e12.4)                   -1     BOTTOM of Layer  20
         0  1475.000(10e12.4)                   -1     BOTTOM of Layer  21
         0  1450.000(10e12.4)                   -1     BOTTOM of Layer  22
         0  1425.000(10e12.4)                   -1     BOTTOM of Layer  23
         0  1400.000(10e12.4)                   -1     BOTTOM of Layer  24
         0  1375.000(10e12.4)                   -1     BOTTOM of Layer  25
         0  1350.000(10e12.4)                   -1     BOTTOM of Layer  26
         0  1325.000(10e12.4)                   -1     BOTTOM of Layer  27
         0  1300.000(10e12.4)                   -1     BOTTOM of Layer  28
         0  1275.000(10e12.4)                   -1     BOTTOM of Layer  29
         0  1250.000(10e12.4)                   -1     BOTTOM of Layer  30
         0  1225.000(10e12.4)                   -1     BOTTOM of Layer  31
         0  1200.000(10e12.4)                   -1     BOTTOM of Layer  32
         0  1175.000(10e12.4)                   -1     BOTTOM of Layer  33
         0  1150.000(10e12.4)                   -1     BOTTOM of Layer  34
         0  1125.000(10e12.4)                   -1     BOTTOM of Layer  35
         0  1100.000(10e12.4)                   -1     BOTTOM of Layer  36
         0  1075.000(10e12.4)                   -1     BOTTOM of Layer  37
         0  1050.000(10e12.4)                   -1     BOTTOM of Layer  38
         0  1025.000(10e12.4)                   -1     BOTTOM of Layer  39
         0  1000.000(10e12.4)                   -1     BOTTOM of Layer  40
         0   975.000(10e12.4)                   -1     BOTTOM of Layer  41
         0   950.000(10e12.4)                   -1     BOTTOM of Layer  42
         0   925.000(10e12.4)                   -1     BOTTOM of Layer  43
         0   900.000(10e12.4)                   -1     BOTTOM of Layer  44
         0   875.000(10e12.4)                   -1     BOTTOM of Layer  45
         0   850.000(10e12.4)                   -1     BOTTOM of Layer  46
         0   825.000(10e12.4)                   -1     BOTTOM of Layer  47
         0   800.000(10e12.4)                   -1     BOTTOM of Layer  48
         0   775.000(10e12.4)                   -1     BOTTOM of Layer  49
         0   750.000(10e12.4)                   -1     BOTTOM of Layer  50
         0   725.000(10e12.4)                   -1     BOTTOM of Layer  51
         0   700.000(10e12.4)                   -1     BOTTOM of Layer  52
         0   675.000(10e12.4)                   -1     BOTTOM of Layer  53
         0   650.000(10e12.4)                   -1     BOTTOM of Layer  54
         0   625.000(10e12.4)                   -1     BOTTOM of Layer  55
         0   600.000(10e12.4)                   -1     BOTTOM of Layer  56
         0   575.000(10e12.4)                   -1     BOTTOM of Layer  57
         0   550.000(10e12.4)                   -1     BOTTOM of Layer  58
         0   525.000(10e12.4)                   -1     BOTTOM of Layer  59
         0   500.000(10e12.4)                   -1     BOTTOM of Layer  60
         0   475.000(10e12.4)                   -1     BOTTOM of Layer  61
         0   450.000(10e12.4)                   -1     BOTTOM of Layer  62
         0   425.000(10e12.4)                   -1     BOTTOM of Layer  63
         0   400.000(10e12.4)                   -1     BOTTOM of Layer  64
         0   375.000(10e12.4)                   -1     BOTTOM of Layer  65
         0   350.000(10e12.4)                   -1     BOTTOM of Layer  66
         0   325.000(10e12.4)                   -1     BOTTOM of Layer  67
         0   300.000(10e12.4)                   -1     BOTTOM of Layer  68
         0   275.000(10e12.4)                   -1     BOTTOM of Layer  69
         0   250.000(10e12.4)                   -1     BOTTOM of Layer  70
         0   225.000(10e12.4)                   -1     BOTTOM of Layer  71
         0   200.000(10e12.4)                   -1     BOTTOM of Layer  72
         0   175.000(10e12.4)                   -1     BOTTOM of Layer  73
         0   150.000(10e12.4)                   -1     BOTTOM of Layer  74
         0   125.000(10e12.4)                   -1     BOTTOM of Layer  75
         0   100.000(10e12.4)                   -1     BOTTOM of Layer  76
         0    75.000(10e12.4)                   -1     BOTTOM of Layer  77
         0    50.000(10e12.4)                   -1     BOTTOM of Layer  78
         0    25.000(10e12.4)                   -1     BOTTOM of Layer  79
         0 0.000e+00(10e12.4)                   -1     BOTTOM of Layer  80
10000.000000  1  1.000000  SS
  730.000000  1  1.000000  Tr
 9270.000000  1  1.000000  Tr