# MODFLOW-NWT Input File
#HEADTOL  FLUXTOL MAXITEROUT THICKFACT   LINMETH   IPRNWT    IBOTAV   OPTIONS  [DBDTHETA]  [DBDKAPPA] [DBDGAMMA] [MOMFACT] [BACKFLAG] [MAXBACKITER] [BACKTOL] [BACKREDUCE]
# [IACL] [NORDER]    [LEVEL]   [NORTH] [IREDSYS][RRCTOLS][IDROPTOL]   [EPSRN] [HCLOSEXMD] [MXITERXMD]
  1.0e-5   1.0e-3       3000    1.0e-6         2        1         1 SPECIFIED        0.70      0.0001        0.0      0.10          0            30      2.00         0.9 linmeth=1 (GMRES); =2 (xmd)  
       2        1          3         2         1      0.0         1    5.0E-3      1.0e-3         200     XMD 