# MODFLOW-NWT - Link-MT3D-USGS Package Input File
OUTPUT_FILE_NAME Keat_UZF.ftl
OUTPUT_FILE_UNIT 13
OUTPUT_FILE_HEADER Extended
OUTPUT_FILE_FORMAT Formatted
PACKAGE_FLOWS UZF
