# File generated by Flopy version 3.5.0.dev0 on 10/30/2023 at 09:20:40.
BEGIN options
  XT3D  RHS
  REWET  WETFCT       1.00000000  IWETIT  1  IHDWET  1
END options

BEGIN griddata
  icelltype
    CONSTANT  1
  k
    CONSTANT      10.00000000
  wetdry
    CONSTANT      -0.00100000
END griddata

