# File generated by Flopy version 3.5.0.dev0 on 10/30/2023 at 09:20:40.
BEGIN options
  PRINT_INPUT
END options

BEGIN dimensions
  MAXBOUND  10
END dimensions

BEGIN period  1
  1 1 1 1.00000000E+02
  1 2 1 1.00000000E+02
  1 3 1 1.00000000E+02
  1 4 1 1.00000000E+02
  1 5 1 1.00000000E+02
  1 6 1 1.00000000E+02
  1 7 1 1.00000000E+02
  1 8 1 1.00000000E+02
  1 9 1 1.00000000E+02
  1 10 1 1.00000000E+02
END period  1

BEGIN period  2
  1 1 1 25
  1 2 1 25
  1 3 1 25
  1 4 1 25
  1 5 1 25
  1 6 1 25
  1 7 1 25
  1 8 1 25
  1 9 1 25
  1 10 1 25
END period  2

