# File generated by Flopy version 3.5.0.dev0 on 10/30/2023 at 09:20:40.
BEGIN options
END options

BEGIN timing
  TDIS6  npf02_hreweta.tdis
END timing

BEGIN models
  gwf6  gwf0.nam  gwf0
END models

BEGIN exchanges
END exchanges

BEGIN solutiongroup  1
  ims6  npf02_hreweta.ims  gwf0
END solutiongroup  1

