# File generated by Flopy version 3.10.0.dev1 on 01/06/2025 at 14:17:14.
BEGIN options
  TIME_UNITS  days
  START_DATE_TIME  2041-01-01t00:00:00-05:00
END options

BEGIN dimensions
  NPER  31
END dimensions

BEGIN perioddata
       1.00000000  1       1.00000000
     365.25000000  6       1.30000000
     365.25000000  6       1.30000000
     365.25000000  6       1.30000000
     365.25000000  6       1.30000000
     365.25000000  6       1.30000000
     365.25000000  6       1.30000000
     365.25000000  6       1.30000000
     365.25000000  6       1.30000000
     365.25000000  6       1.30000000
     365.25000000  6       1.30000000
     365.25000000  6       1.30000000
     365.25000000  6       1.30000000
     365.25000000  6       1.30000000
     365.25000000  6       1.30000000
     365.25000000  6       1.30000000
     365.25000000  6       1.30000000
     365.25000000  6       1.30000000
     365.25000000  6       1.30000000
     365.25000000  6       1.30000000
     365.25000000  6       1.30000000
     365.25000000  6       1.30000000
     365.25000000  6       1.30000000
     365.25000000  6       1.30000000
     365.25000000  6       1.30000000
     365.25000000  6       1.30000000
     365.25000000  6       1.30000000
     365.25000000  6       1.30000000
     365.25000000  6       1.30000000
     365.25000000  6       1.30000000
     365.25000000  6       1.30000000
END perioddata

