# NOT generated by Flopy
BEGIN options
  SAVE_FLOWS
  NEWTON
  NETCDF  FILEIN  gwf_sto01.in.nc
END options

BEGIN packages
  DIS6  gwf_sto01.dis  dis
  IC6  gwf_sto01.ic  ic
  NPF6  gwf_sto01.npf  npf
  STO6  gwf_sto01.sto  sto
  RCH6  gwf_sto01.rcha  rcha_0
  WEL6  gwf_sto01.wel  wel_0
  CHD6  gwf_sto01.chd  chd_0
  OC6  gwf_sto01.oc  oc
END packages
