# File generated by Flopy version 3.10.0.dev1 on 01/06/2025 at 14:17:14.
BEGIN options
  PRINT_OPTION  summary
END options

BEGIN nonlinear
  OUTER_DVCLOSE  1.00000000E-09
  OUTER_MAXIMUM  500
  UNDER_RELAXATION  none
END nonlinear

BEGIN linear
  INNER_MAXIMUM  300
  INNER_DVCLOSE  1.00000000E-09
  inner_rclose  1.00000000E-06
  LINEAR_ACCELERATION  bicgstab
  RELAXATION_FACTOR       1.00000000
  SCALING_METHOD  none
  REORDERING_METHOD  none
END linear

