# File generated by Flopy version 3.10.0.dev1 on 01/06/2025 at 14:17:14.
BEGIN options
  BUDGET  FILEOUT  gwf_sto01.cbc
  HEAD  FILEOUT  gwf_sto01.hds
  HEAD  PRINT_FORMAT  COLUMNS  10  WIDTH  15  DIGITS  6  GENERAL
END options

BEGIN period  1
  SAVE  HEAD  ALL
  SAVE  BUDGET  ALL
  PRINT  HEAD  LAST
  PRINT  BUDGET  ALL
END period  1

