# File generated by Flopy version 3.10.0.dev1 on 01/06/2025 at 14:17:14.
BEGIN options
END options

BEGIN timing
  TDIS6  gwf_sto01.tdis
END timing

BEGIN models
  gwf6  gwf_sto01.nam  gwf_sto01
END models

BEGIN exchanges
END exchanges

BEGIN solutiongroup  1
  ims6  gwf_sto01.ims  gwf_sto01
END solutiongroup  1

