# Basic package file for MODFLOW-USG, generated by Flopy.
begin options
end options

BEGIN GRIDDATA
strt
  constant 1.0
END GRIDDATA
