BEGIN OPTIONS
  NEWTON
END OPTIONS

BEGIN PACKAGES
  DIS6           model1.dis
  IC6            model1.ic
  NPF6           model1.npf    npf_p1
  CHD6           model1.chd
  MAW6           model1.mawq
  OC6            model1.oc    oc_p1
END PACKAGES

