begin options
  PRINT_INPUT
  PRINT_FLOWS
  SAVE_FLOWS
end options

begin dimensions
  MAXBOUND 30
end dimensions

begin period 1

#left
 1 1 1 1.
 1 2 1 1.
 1 3 1 1.
 1 4 1 1.
 1 5 1 1.
 1 6 1 1.
 1 7 1 1.

#right
 1 1 7 0.
 1 2 7 0.
 1 3 7 0.
 1 4 7 0.
 1 5 7 0.
 1 6 7 0.
 1 7 7 0.
end period
