BEGIN OPTIONS
  HEAD FILEOUT model2.hds
  BUDGET FILEOUT model2.cbc
END OPTIONS

BEGIN PERIOD 1
  PRINT BUDGET ALL
  SAVE BUDGET ALL
  PRINT HEAD ALL
  SAVE HEAD ALL
END PERIOD
