BEGIN OPTIONS
  HEAD FILEOUT model1.hds
  BUDGET FILEOUT model1.cbc
END OPTIONS

BEGIN PERIOD 1
  PRINT BUDGET ALL
  SAVE BUDGET ALL
  PRINT HEAD ALL
  SAVE HEAD ALL
END PERIOD
