
begin options
  PRINT_INPUT
  PRINT_FLOWS
  SAVE_FLOWS
  AUXILIARY testaux
  GNC6 FILEIN simulation.gnc
  MVR6 FILEIN simulation.mvr
end options

begin dimensions
  NEXG 36
end dimensions

  # nodem1 nodem2  ihc  cl1   cl2    hwva  testaux
begin exchangedata
#
#       left side
     1 3 2  1 1 1    1  50. 16.67 33.33   100.99 
     1 3 2  1 2 1    1  50. 16.67 33.33   100.99
     1 3 2  1 3 1    1  50. 16.67 33.33   100.99
     1 4 2  1 4 1    1  50. 16.67 33.33   100.99
     1 4 2  1 5 1    1  50. 16.67 33.33   100.99
     1 4 2  1 6 1    1  50. 16.67 33.33   100.99
     1 5 2  1 7 1    1  50. 16.67 33.33   100.99
     1 5 2  1 8 1    1  50. 16.67 33.33   100.99
     1 5 2  1 9 1    1  50. 16.67 33.33   100.99
#                                                 
#       right side                                
     1 3 6  1 1 9    1  50. 16.67 33.33   100.99
     1 3 6  1 2 9    1  50. 16.67 33.33   100.99
     1 3 6  1 3 9    1  50. 16.67 33.33   100.99
     1 4 6  1 4 9    1  50. 16.67 33.33   100.99
     1 4 6  1 5 9    1  50. 16.67 33.33   100.99
     1 4 6  1 6 9    1  50. 16.67 33.33   100.99
     1 5 6  1 7 9    1  50. 16.67 33.33   100.99
     1 5 6  1 8 9    1  50. 16.67 33.33   100.99
     1 5 6  1 9 9    1  50. 16.67 33.33   100.99
#                                                 
#       back                                      
     1 2 3  1 1 1    1  50. 16.67 33.33   100.99
     1 2 3  1 1 2    1  50. 16.67 33.33   100.99
     1 2 3  1 1 3    1  50. 16.67 33.33   100.99
     1 2 4  1 1 4    1  50. 16.67 33.33   100.99
     1 2 4  1 1 5    1  50. 16.67 33.33   100.99
     1 2 4  1 1 6    1  50. 16.67 33.33   100.99
     1 2 5  1 1 7    1  50. 16.67 33.33   100.99
     1 2 5  1 1 8    1  50. 16.67 33.33   100.99
     1 2 5  1 1 9    1  50. 16.67 33.33   100.99
#                                                 
#       front                                     
     1 6 3  1 9 1    1  50. 16.67 33.33   100.99
     1 6 3  1 9 2    1  50. 16.67 33.33   100.99
     1 6 3  1 9 3    1  50. 16.67 33.33   100.99
     1 6 4  1 9 4    1  50. 16.67 33.33   100.99
     1 6 4  1 9 5    1  50. 16.67 33.33   100.99
     1 6 4  1 9 6    1  50. 16.67 33.33   100.99
     1 6 5  1 9 7    1  50. 16.67 33.33   100.99
     1 6 5  1 9 8    1  50. 16.67 33.33   100.99
     1 6 5  1 9 9    1  50. 16.67 33.33   100.99
end exchangedata

