BEGIN OPTIONS
  continue
END OPTIONS

BEGIN TIMING
  TDIS6 simulation.tdis
END TIMING

BEGIN MODELS
  #modeltype      namefile            modelname
         GWF6      timeseriestest.nam  GWF_1
END MODELS

BEGIN EXCHANGES
END EXCHANGES

BEGIN SOLUTIONGROUP 1
  MXITER 1
  IMS6 model.ims GWF_1
END SOLUTIONGROUP
