BEGIN OPTIONS
  TIME_UNITS DAYS
END OPTIONS

BEGIN DIMENSIONS
  NPER 3
END DIMENSIONS

BEGIN PERIODDATA
 #perlen nstp  tsmult
      10    1       1
      10    5       1
      10    5       1
END PERIODDATA
