BEGIN OPTIONS
  HEAD FILEOUT timeseriestest.hds
END OPTIONS

BEGIN PERIOD 1
  PRINT BUDGET FREQUENCY 1
  SAVE HEAD FREQUENCY 1
  PRINT HEAD FREQUENCY 1
END PERIOD
