begin options
  digits 10
  print_input
end options

#
# Blocks defining continuous observations
#

begin continuous FILEOUT timeseries_gwf.csv
  L1          head  1 26 26
  L2          head  2 26 26
end continuous

