BEGIN OPTIONS
  #NONE
  LENGTH_UNITS METERS
END OPTIONS

BEGIN DIMENSIONS
  NLAY 2
  NROW 51
  NCOL 51
END DIMENSIONS

BEGIN GRIDDATA
  delr
    CONSTANT   50.  DELR
  delc
    CONSTANT   50.  DELC
  top LAYERED
    CONSTANT   10.    MODEL TOP
  botm LAYERED
    CONSTANT  -10.0  MODEL BOTTOM LAYER 1
    CONSTANT  -20.0  MODEL BOTTOM LAYER 2
  idomain 
    constant 1
END GRIDDATA




