BEGIN OPTIONS
  PRINT_INPUT  (echo input to listing file)
  PRINT_FLOWS  (print the flows to the listing file)
  BOUNDNAMES
  TS6 FILEIN  timeseries.well.ts
  OBS6 FILEIN            timeseriestest.wel.obs
  AUXILIARY          Aux1 Aux2 MyMult
  AUXMULTNAME  MyMult
END OPTIONS

BEGIN DIMENSIONS
  MAXBOUND 1
END DIMENSIONS

BEGIN PERIOD 1
#        k         i         j      flow  Aux1  Aux2  MyMult  name
         2        26        26   wrate_1   1.1   2.1  1.02    well_1
END PERIOD

BEGIN PERIOD 2
#        k         i         j      flow  Aux1  Aux2  MyMult  name
         2        26        26    -3000.   1.2   2.2  1.03    well_1
END PERIOD

BEGIN PERIOD 3
#        k         i         j      flow  Aux1  Aux2  MyMult  name
         2        26        26   wrate_2   1.3   2.3  1.04    well_1
END PERIOD
