# File generated by Flopy version 3.5.0.dev0 on 10/30/2023 at 09:08:53.
BEGIN options
  SAVE_FLOWS
END options

BEGIN packages
  DIS6  evt02.dis  dis
  IC6  evt02.ic  ic
  NPF6  evt02.npf  npf
  CHD6  evt02.chd  chd_0
  EVT6  evt02.evt  evt_0
  OC6  evt02.oc  oc
END packages

