# File generated by Flopy version 3.5.0.dev0 on 10/30/2023 at 09:08:53.
BEGIN options
  PRINT_FLOWS
  SURF_RATE_SPECIFIED
END options

BEGIN dimensions
  MAXBOUND  1
  NSEG  1
END dimensions

BEGIN period  1
  1 1 2      95.00000000       0.00100000      90.00000000       0.10000000
END period  1

