# File generated by Flopy version 3.5.0.dev0 on 10/30/2023 at 09:08:53.
BEGIN options
END options

BEGIN dimensions
  MAXBOUND  2
END dimensions

BEGIN period  1
  1 1 1 1.00000000E+00
  1 1 3 1.00000000E+00
END period  1

BEGIN period  2
  1 1 1 3.02040816E+00
  1 1 3 3.02040816E+00
END period  2

BEGIN period  3
  1 1 1 5.04081633E+00
  1 1 3 5.04081633E+00
END period  3

BEGIN period  4
  1 1 1 7.06122449E+00
  1 1 3 7.06122449E+00
END period  4

BEGIN period  5
  1 1 1 9.08163265E+00
  1 1 3 9.08163265E+00
END period  5

BEGIN period  6
  1 1 1 1.11020408E+01
  1 1 3 1.11020408E+01
END period  6

BEGIN period  7
  1 1 1 1.31224490E+01
  1 1 3 1.31224490E+01
END period  7

BEGIN period  8
  1 1 1 1.51428571E+01
  1 1 3 1.51428571E+01
END period  8

BEGIN period  9
  1 1 1 1.71632653E+01
  1 1 3 1.71632653E+01
END period  9

BEGIN period  10
  1 1 1 1.91836735E+01
  1 1 3 1.91836735E+01
END period  10

BEGIN period  11
  1 1 1 2.12040816E+01
  1 1 3 2.12040816E+01
END period  11

BEGIN period  12
  1 1 1 2.32244898E+01
  1 1 3 2.32244898E+01
END period  12

BEGIN period  13
  1 1 1 2.52448980E+01
  1 1 3 2.52448980E+01
END period  13

BEGIN period  14
  1 1 1 2.72653061E+01
  1 1 3 2.72653061E+01
END period  14

BEGIN period  15
  1 1 1 2.92857143E+01
  1 1 3 2.92857143E+01
END period  15

BEGIN period  16
  1 1 1 3.13061224E+01
  1 1 3 3.13061224E+01
END period  16

BEGIN period  17
  1 1 1 3.33265306E+01
  1 1 3 3.33265306E+01
END period  17

BEGIN period  18
  1 1 1 3.53469388E+01
  1 1 3 3.53469388E+01
END period  18

BEGIN period  19
  1 1 1 3.73673469E+01
  1 1 3 3.73673469E+01
END period  19

BEGIN period  20
  1 1 1 3.93877551E+01
  1 1 3 3.93877551E+01
END period  20

BEGIN period  21
  1 1 1 4.14081633E+01
  1 1 3 4.14081633E+01
END period  21

BEGIN period  22
  1 1 1 4.34285714E+01
  1 1 3 4.34285714E+01
END period  22

BEGIN period  23
  1 1 1 4.54489796E+01
  1 1 3 4.54489796E+01
END period  23

BEGIN period  24
  1 1 1 4.74693878E+01
  1 1 3 4.74693878E+01
END period  24

BEGIN period  25
  1 1 1 4.94897959E+01
  1 1 3 4.94897959E+01
END period  25

BEGIN period  26
  1 1 1 5.15102041E+01
  1 1 3 5.15102041E+01
END period  26

BEGIN period  27
  1 1 1 5.35306122E+01
  1 1 3 5.35306122E+01
END period  27

BEGIN period  28
  1 1 1 5.55510204E+01
  1 1 3 5.55510204E+01
END period  28

BEGIN period  29
  1 1 1 5.75714286E+01
  1 1 3 5.75714286E+01
END period  29

BEGIN period  30
  1 1 1 5.95918367E+01
  1 1 3 5.95918367E+01
END period  30

BEGIN period  31
  1 1 1 6.16122449E+01
  1 1 3 6.16122449E+01
END period  31

BEGIN period  32
  1 1 1 6.36326531E+01
  1 1 3 6.36326531E+01
END period  32

BEGIN period  33
  1 1 1 6.56530612E+01
  1 1 3 6.56530612E+01
END period  33

BEGIN period  34
  1 1 1 6.76734694E+01
  1 1 3 6.76734694E+01
END period  34

BEGIN period  35
  1 1 1 6.96938776E+01
  1 1 3 6.96938776E+01
END period  35

BEGIN period  36
  1 1 1 7.17142857E+01
  1 1 3 7.17142857E+01
END period  36

BEGIN period  37
  1 1 1 7.37346939E+01
  1 1 3 7.37346939E+01
END period  37

BEGIN period  38
  1 1 1 7.57551020E+01
  1 1 3 7.57551020E+01
END period  38

BEGIN period  39
  1 1 1 7.77755102E+01
  1 1 3 7.77755102E+01
END period  39

BEGIN period  40
  1 1 1 7.97959184E+01
  1 1 3 7.97959184E+01
END period  40

BEGIN period  41
  1 1 1 8.18163265E+01
  1 1 3 8.18163265E+01
END period  41

BEGIN period  42
  1 1 1 8.38367347E+01
  1 1 3 8.38367347E+01
END period  42

BEGIN period  43
  1 1 1 8.58571429E+01
  1 1 3 8.58571429E+01
END period  43

BEGIN period  44
  1 1 1 8.78775510E+01
  1 1 3 8.78775510E+01
END period  44

BEGIN period  45
  1 1 1 8.98979592E+01
  1 1 3 8.98979592E+01
END period  45

BEGIN period  46
  1 1 1 9.19183673E+01
  1 1 3 9.19183673E+01
END period  46

BEGIN period  47
  1 1 1 9.39387755E+01
  1 1 3 9.39387755E+01
END period  47

BEGIN period  48
  1 1 1 9.59591837E+01
  1 1 3 9.59591837E+01
END period  48

BEGIN period  49
  1 1 1 9.79795918E+01
  1 1 3 9.79795918E+01
END period  49

BEGIN period  50
  1 1 1 1.00000000E+02
  1 1 3 1.00000000E+02
END period  50

