# File generated by Flopy version 3.5.0.dev0 on 10/30/2023 at 09:08:53.
BEGIN options
END options

BEGIN timing
  TDIS6  evt02.tdis
END timing

BEGIN models
  gwf6  evt02.nam  evt02
END models

BEGIN exchanges
END exchanges

BEGIN solutiongroup  1
  ims6  evt02.ims  evt02
END solutiongroup  1

