 LISTING FILE: p7.M3D
                         UNIT  16

 OPENING p7.BTN
 FILE TYPE:BTN   UNIT   1

 OPENING p7.ADV
 FILE TYPE:ADV   UNIT   2

 OPENING p7.DSP
 FILE TYPE:DSP   UNIT   3

 OPENING p7.SSM
 FILE TYPE:SSM   UNIT   4

 OPENING p7.GCG
 FILE TYPE:GCG   UNIT   9

 OPENING p7.FTL
 FILE TYPE:FTL   UNIT  10

                              +++++++++++++++++++++++++++++++++++++++++++++++++++++++++++++++++++++++
                              +                                                                     +
                              +                               MT3DMS                                +
                              +             A Modular 3D Multi-Species Transport Model              +
                              +    For Simulation of Advection, Dispersion and Chemical Reactions   +
                              +                of Contaminants in Groundwater Systems               +
                              +                                                                     +
                              +++++++++++++++++++++++++++++++++++++++++++++++++++++++++++++++++++++++

  ----- 
 | M T | MultiDiffusion Example with 3 Components                                        
 | 3 D | Modified from Example 7 of MT3DMS MANUAL)                                       
  ----- 
 THE TRANSPORT MODEL CONSISTS OF     8 LAYER(S)   15 ROW(S)   21 COLUMN(S)
 NUMBER OF STRESS PERIOD(S) FOR TRANSPORT SIMULATION =    1
 NUMBER OF ALL COMPONENTS INCLUDED IN SIMULATION =    3
 NUMBER OF MOBILE COMPONENTS INCLUDED IN SIMULATION =    3
 UNIT FOR TIME IS  DAY;  UNIT FOR LENGTH IS   FT;  UNIT FOR MASS IS   LB
 OPTIONAL PACKAGES INCLUDED IN CURRENT SIMULATION:
  o ADV   ON UNIT  2
  o DSP   ON UNIT  3
  o SSM   ON UNIT  4
  o GCG   ON UNIT  9

 BTN5 -- BASIC TRANSPORT PACKAGE, VERSION 5, FEBRUARY 2010, INPUT READ FROM UNIT  1
      68427 ELEMENTS OF THE  X ARRAY USED BY THE BTN PACKAGE
       7568 ELEMENTS OF THE IX ARRAY USED BY THE BTN PACKAGE

 FMI5 -- FLOW MODEL INTERFACE PACKAGE, VERSION 5, FEBRUARY 2010, INPUT READ FROM UNIT 10
 FLOW MODEL IS STEADY-STATE
 FLOW MODEL CONTAINS CONSTANT-HEAD CELLS

 ADV5 -- ADVECTION PACKAGE, VERSION 5, FEBRUARY 2010, INPUT READ FROM UNIT  2
 ADVECTION IS SOLVED WITH THE ULTIMATE SCHEME
 COURANT NUMBER ALLOWED IN SOLVING THE ADVECTION TERM =  1.00    
          0 ELEMENTS OF THE  X ARRAY USED BY THE ADV PACKAGE
          0 ELEMENTS OF THE IX ARRAY USED BY THE ADV PACKAGE

 DSP5 -- DISPERSION PACKAGE, VERSION 5, FEBRUARY 2010, INPUT READ FROM UNIT  3
      47896 ELEMENTS OF THE  X ARRAY USED BY THE DSP PACKAGE
          0 ELEMENTS OF THE IX ARRAY USED BY THE DSP PACKAGE

 SSM5 -- SINK & SOURCE MIXING PACKAGE, VERSION 5, FEBRUARY 2010, INPUT READ FROM UNIT  4
 HEADER LINE OF THE SSM PACKAGE INPUT FILE:
  T F F F F F                                           /FWEL,FDRN,FRCH,FEVT,FRIV,FGHB                                                                                                                   
 MAJOR STRESS COMPONENTS PRESENT IN THE FLOW MODEL:
  o WELL [WEL]
 MAXIMUM NUMBER OF POINT SINKS/SOURCES =    1000
      15000 ELEMENTS OF THE  X ARRAY USED BY THE SSM PACKAGE
          0 ELEMENTS OF THE IX ARRAY BY THE SSM PACKAGE

 GCG5 -- GENERALIZED CONJUGATE GRADIENT SOLVER PACKAGE, VERSION 5, FEBRUARY 2010 INPUT READ FROM UNIT  9
 MAXIMUM OF    1 OUTER ITERATIONS
        AND  200 INNER ITERATIONS ALLOWED FOR CLOSURE
 THE PRECONDITIONING TYPE SELECTED IS MODIFIED INCOMPLETE CHOLESKY (MIC).
 FULL DISPERSION TENSOR INCLUDED IN IMPLICIT SOLUTION
     116120 ELEMENTS OF THE  X ARRAY USED BY THE GCG PACKAGE
        600 ELEMENTS OF THE IX ARRAY USED BY THE GCG PACKAGE

 ..........................................
 ELEMENTS OF THE  X ARRAY USED =    247444
 ELEMENTS OF THE IX ARRAY USED =      8169
 ..........................................

 LAYER NUMBER  AQUIFER TYPE
 ------------  ------------
       1            0
       2            0
       3            0
       4            0
       5            0
       6            0
       7            0
       8            0
                                       WIDTH ALONG ROWS (DELR)  =   10.00000    
                                       WIDTH ALONG COLS (DELC)  =   10.00000    
                                       TOP ELEV. OF 1ST LAYER   =   80.00000    
                                       CELL THICKNESS (DZ)      =   10.00000     FOR LAYER  1
                                       CELL THICKNESS (DZ)      =   10.00000     FOR LAYER  2
                                       CELL THICKNESS (DZ)      =   10.00000     FOR LAYER  3
                                       CELL THICKNESS (DZ)      =   10.00000     FOR LAYER  4
                                       CELL THICKNESS (DZ)      =   10.00000     FOR LAYER  5
                                       CELL THICKNESS (DZ)      =   10.00000     FOR LAYER  6
                                       CELL THICKNESS (DZ)      =   10.00000     FOR LAYER  7
                                       CELL THICKNESS (DZ)      =   10.00000     FOR LAYER  8
                                       POROSITY                 =  0.2000000     FOR LAYER  1
                                       POROSITY                 =  0.2000000     FOR LAYER  2
                                       POROSITY                 =  0.2000000     FOR LAYER  3
                                       POROSITY                 =  0.2000000     FOR LAYER  4
                                       POROSITY                 =  0.2000000     FOR LAYER  5
                                       POROSITY                 =  0.2000000     FOR LAYER  6
                                       POROSITY                 =  0.2000000     FOR LAYER  7
                                       POROSITY                 =  0.2000000     FOR LAYER  8
                                       CONCN. BOUNDARY ARRAY    =              1 FOR LAYER  1
                                       CONCN. BOUNDARY ARRAY    =              1 FOR LAYER  2
                                       CONCN. BOUNDARY ARRAY    =              1 FOR LAYER  3
                                       CONCN. BOUNDARY ARRAY    =              1 FOR LAYER  4
                                       CONCN. BOUNDARY ARRAY    =              1 FOR LAYER  5
                                       CONCN. BOUNDARY ARRAY    =              1 FOR LAYER  6
                                       CONCN. BOUNDARY ARRAY    =              1 FOR LAYER  7
                                       CONCN. BOUNDARY ARRAY    =              1 FOR LAYER  8
                                       INITIAL CONC.: COMP.  01 =   0.000000     FOR LAYER  1
                                       INITIAL CONC.: COMP.  01 =   0.000000     FOR LAYER  2
                                       INITIAL CONC.: COMP.  01 =   0.000000     FOR LAYER  3
                                       INITIAL CONC.: COMP.  01 =   0.000000     FOR LAYER  4
                                       INITIAL CONC.: COMP.  01 =   0.000000     FOR LAYER  5
                                       INITIAL CONC.: COMP.  01 =   0.000000     FOR LAYER  6
                                       INITIAL CONC.: COMP.  01 =   0.000000     FOR LAYER  7
                                       INITIAL CONC.: COMP.  01 =   0.000000     FOR LAYER  8
                                       INITIAL CONC.: COMP.  02 =   0.000000     FOR LAYER  1
                                       INITIAL CONC.: COMP.  02 =   0.000000     FOR LAYER  2
                                       INITIAL CONC.: COMP.  02 =   0.000000     FOR LAYER  3
                                       INITIAL CONC.: COMP.  02 =   0.000000     FOR LAYER  4
                                       INITIAL CONC.: COMP.  02 =   0.000000     FOR LAYER  5
                                       INITIAL CONC.: COMP.  02 =   0.000000     FOR LAYER  6
                                       INITIAL CONC.: COMP.  02 =   0.000000     FOR LAYER  7
                                       INITIAL CONC.: COMP.  02 =   0.000000     FOR LAYER  8
                                       INITIAL CONC.: COMP.  03 =   0.000000     FOR LAYER  1
                                       INITIAL CONC.: COMP.  03 =   0.000000     FOR LAYER  2
                                       INITIAL CONC.: COMP.  03 =   0.000000     FOR LAYER  3
                                       INITIAL CONC.: COMP.  03 =   0.000000     FOR LAYER  4
                                       INITIAL CONC.: COMP.  03 =   0.000000     FOR LAYER  5
                                       INITIAL CONC.: COMP.  03 =   0.000000     FOR LAYER  6
                                       INITIAL CONC.: COMP.  03 =   0.000000     FOR LAYER  7
                                       INITIAL CONC.: COMP.  03 =   0.000000     FOR LAYER  8

 VALUE INDICATING INACTIVE CONCENTRATION CELLS =    999.9900    
 MINIMUM SATURATED THICKNESS [THKMIN] ALLOWED =  0.0000 OF TOTAL CELL THICKNESS


 OUTPUT CONTROL OPTIONS
 ----------------------

 PRINT CELL CONCENTRATION USING FORMAT CODE:    1
 PRINT PARTICLE NUMBER IN EACH CELL USING FORMAT CODE:    2
 PRINT RETARDATION FACTOR USING FORMAT CODE:    1
 PRINT DISPERSION COEFFICIENT USING FORMAT CODE:    1
 SAVE DISSOLVED PHASE CONCENTRATIONS IN UNFORMATTED FILES [MT3Dnnn.UCN]
  FOR EACH SPECIES ON UNITS 201 AND ABOVE

 NUMBER OF TIMES AT WHICH SIMULATION RESULTS ARE SAVED =   10
 TOTAL ELAPSED TIMES AT WHICH SIMULATION RESULTS ARE SAVED: 
    10.000       20.000       30.000       40.000       50.000       60.000       70.000       80.000    
    90.000       100.00    

 NUMBER OF OBSERVATION POINTS =    4
 SAVE CONCENTRATIONS AT OBSERVATION POINTS IN FILES [MT3Dnnn.OBS]
  FOR EACH SPECIES ON UNITS 401 AND ABOVE, EVERY  1 TRANSPORT STEPS
 LOCATION OF OBSERVATION POINTS
 ..............................
 NUMBER  LAYER   ROW   COLUMN
   1        7      8      3
   2        5      8      5
   3        5      9      5
   4        5     10      5

 SAVE ONE-LINE SUMMARY OF MASS BUDGETS IN FILES [MT3Dnnn.MAS]
  FOR EACH SPECIES ON UNITS 601 AND ABOVE, EVERY  1 TRANSPORT STEPS

 MAXIMUM LENGTH ALONG THE X (J) AXIS =   210.0000    
 MAXIMUM LENGTH ALONG THE Y (I) AXIS =   150.0000    
 MAXIMUM LENGTH ALONG THE Z (K) AXIS =   80.00000    


 ADVECTION SOLUTION OPTIONS
 --------------------------

 ADVECTION IS SOLVED WITH THE ULTIMATE SCHEME
 COURANT NUMBER ALLOWED IN SOLVING THE ADVECTION TERM =  1.00    


 DISPERSION INPUT PARAMETERS
 ---------------------------

#                                                                                                                                                                                                       
# DSP input file with keyword line indicated by the $ symbol in column 1                                                                                                                                
#                                                                                                                                                                                                       
 DISPERSION PACKAGE INPUT KEYWORDS: MULTIDIFFUSION
                                       LONG. DISPERSIVITY (AL)  =   10.00000     FOR LAYER  1
                                       LONG. DISPERSIVITY (AL)  =   10.00000     FOR LAYER  2
                                       LONG. DISPERSIVITY (AL)  =   10.00000     FOR LAYER  3
                                       LONG. DISPERSIVITY (AL)  =   10.00000     FOR LAYER  4
                                       LONG. DISPERSIVITY (AL)  =   10.00000     FOR LAYER  5
                                       LONG. DISPERSIVITY (AL)  =   10.00000     FOR LAYER  6
                                       LONG. DISPERSIVITY (AL)  =   10.00000     FOR LAYER  7
                                       LONG. DISPERSIVITY (AL)  =   10.00000     FOR LAYER  8
                                       H. TRANS./LONG. DISP.    =  0.3000000    
                                       V. TRANS./LONG. DISP.    =  0.3000000    
                                       DIFFUSION COEFF. COMP 01 =   1.000000     FOR LAYER  1
                                       DIFFUSION COEFF. COMP 01 =   1.000000     FOR LAYER  2
                                       DIFFUSION COEFF. COMP 01 =   1.000000     FOR LAYER  3
                                       DIFFUSION COEFF. COMP 01 =   1.000000     FOR LAYER  4
                                       DIFFUSION COEFF. COMP 01 =   1.000000     FOR LAYER  5
                                       DIFFUSION COEFF. COMP 01 =   1.000000     FOR LAYER  6
                                       DIFFUSION COEFF. COMP 01 =   1.000000     FOR LAYER  7
                                       DIFFUSION COEFF. COMP 01 =   1.000000     FOR LAYER  8
                                       DIFFUSION COEFF. COMP 02 =   0.000000     FOR LAYER  1
                                       DIFFUSION COEFF. COMP 02 =   0.000000     FOR LAYER  2
                                       DIFFUSION COEFF. COMP 02 =   0.000000     FOR LAYER  3
                                       DIFFUSION COEFF. COMP 02 =   0.000000     FOR LAYER  4
                                       DIFFUSION COEFF. COMP 02 =   0.000000     FOR LAYER  5
                                       DIFFUSION COEFF. COMP 02 =   0.000000     FOR LAYER  6
                                       DIFFUSION COEFF. COMP 02 =   0.000000     FOR LAYER  7
                                       DIFFUSION COEFF. COMP 02 =   0.000000     FOR LAYER  8
                                       DIFFUSION COEFF. COMP 03 =  0.1000000     FOR LAYER  1
                                       DIFFUSION COEFF. COMP 03 =  0.1000000     FOR LAYER  2
                                       DIFFUSION COEFF. COMP 03 =  0.1000000     FOR LAYER  3
                                       DIFFUSION COEFF. COMP 03 =  0.1000000     FOR LAYER  4
                                       DIFFUSION COEFF. COMP 03 =  0.1000000     FOR LAYER  5
                                       DIFFUSION COEFF. COMP 03 =  0.1000000     FOR LAYER  6
                                       DIFFUSION COEFF. COMP 03 =  0.1000000     FOR LAYER  7
                                       DIFFUSION COEFF. COMP 03 =  0.1000000     FOR LAYER  8



                                               SOLUTION BY THE GENERALIZED CONJUGATE GRADIENT METHOD
                                               -----------------------------------------------------
                                     MAXIMUM OUTER ITERATIONS ALLOWED FOR CLOSURE =        1
                                     MAXIMUM INNER ITERATIONS ALLOWED FOR CLOSURE =      200
                                                    PRECONDITIONING TYPE SELECTED =    3
                                                           ACCELERATION PARAMETER =     1.0000    
                                       CONCENTRATION CHANGE CRITERION FOR CLOSURE =    0.10000E-05
                                       GCG CONCENTRATION CHANGE PRINTOUT INTERVAL =      999


                                   ++++++++++++++++++++++++++++++++++++++++++++++++++++++++++++++
                                                       STRESS PERIOD NO.  001
                                   ++++++++++++++++++++++++++++++++++++++++++++++++++++++++++++++


 LENGTH OF CURRENT STRESS PERIOD =   100.0000    
 NUMBER OF TIME STEPS FOR CURRENT STRESS PERIOD =    1
 TIME STEP MULTIPLIER USED IN FLOW SOLUTION =   1.000000    

 ***Type of Transport Simulation is TRANSIENT

 USER-SPECIFIED TRANSPORT STEPSIZE =   4.000000     DAY
 MAXIMUM NUMBER OF TRANSPORT STEPS ALLOWED  IN ONE FLOW TIME STEP =     10000
 MULTIPLIER FOR SUCCESSIVE TRANSPORT STEPS  [USED IN IMPLICIT SCHEMES] =     1.000
 MAXIMUM TRANSPORT STEP SIZE  [USED IN IMPLICIT SCHEMES] =   0.000000     DAY

       NO    LAYER   ROW   COLUMN   CONCENTRATION       TYPE            COMPONENT
       1       7       8       3       100.0000         WELL                1
       1       7       8       3       100.0000         WELL                2
       1       7       8       3       100.0000         WELL                3


                                          ================================================
                                                         TIME STEP NO.  001
                                          ================================================

 FROM TIME =   0.0000     TO    100.00    


                    "THKSAT          " FLOW TERMS FOR TIME STEP  1, STRESS PERIOD  1 READ UNFORMATTED ON UNIT 10
                    --------------------------------------------------------------------------------------------

                    "QXX             " FLOW TERMS FOR TIME STEP  1, STRESS PERIOD  1 READ UNFORMATTED ON UNIT 10
                    --------------------------------------------------------------------------------------------

                    "QYY             " FLOW TERMS FOR TIME STEP  1, STRESS PERIOD  1 READ UNFORMATTED ON UNIT 10
                    --------------------------------------------------------------------------------------------

                    "QZZ             " FLOW TERMS FOR TIME STEP  1, STRESS PERIOD  1 READ UNFORMATTED ON UNIT 10
                    --------------------------------------------------------------------------------------------

 MAXIMUM STEPSIZE DURING WHICH ANY PARTICLE CANNOT MOVE MORE THAN ONE CELL
 =  19.90    (WHEN MIN. R.F.=1)  AT K=   7, I=   8, J=   4

 MAXIMUM STEPSIZE WHICH MEETS STABILITY CRITERION OF THE ADVECTION TERM
 (FOR PURE FINITE-DIFFERENCE OPTION, MIXELM=0) 
 =  19.51    (WHEN MIN. R.F.=1)  AT K=   7, I=   8, J=   3

                    "CNH             " FLOW TERMS FOR TIME STEP  1, STRESS PERIOD  1 READ UNFORMATTED ON UNIT 10
                    --------------------------------------------------------------------------------------------

                    "WEL             " FLOW TERMS FOR TIME STEP  1, STRESS PERIOD  1 READ UNFORMATTED ON UNIT 10
                    --------------------------------------------------------------------------------------------


 TOTAL NUMBER OF POINT SOURCES/SINKS PRESENT IN THE FLOW MODEL =   241

 MAXIMUM STEPSIZE WHICH MEETS STABILITY CRITERION OF THE SINK & SOURCE TERM
 =  20.00    (WHEN MIN. R.F.=1)  AT K=   1, I=  15, J=   1

 PRINTED DISPERSION COEFFICIENTS ARE APPARENT Dij CALCULATED USING DARCY FLUX RATHER THAN SEEPAGE VELOCITY

                                   Dxx^ Comp. # 001 IN LAYER  1 FOR TIME STEP  1, STRESS PERIOD  1
                                   ---------------------------------------------------------------

           1          2          3          4          5          6          7          8          9         10         11
          12         13         14         15         16         17         18         19         20         21
 ..............................................................................................................................
   1    1.20       1.20       1.20       1.20       1.20       1.20       1.20       1.20       1.20       1.20       1.20    
        1.20       1.20       1.20       1.20       1.20       1.20       1.20       1.20       1.20      0.200    
   2    1.20       1.20       1.20       1.20       1.20       1.20       1.20       1.20       1.20       1.20       1.20    
        1.20       1.20       1.20       1.20       1.20       1.20       1.20       1.20       1.20      0.200    
   3    1.20       1.20       1.20       1.20       1.20       1.20       1.20       1.20       1.20       1.20       1.20    
        1.20       1.20       1.20       1.20       1.20       1.20       1.20       1.20       1.20      0.200    
   4    1.20       1.20       1.20       1.20       1.20       1.20       1.20       1.20       1.20       1.20       1.20    
        1.20       1.20       1.20       1.20       1.20       1.20       1.20       1.20       1.20      0.200    
   5    1.20       1.20       1.20       1.20       1.20       1.20       1.20       1.20       1.20       1.20       1.20    
        1.20       1.20       1.20       1.20       1.20       1.20       1.20       1.20       1.20      0.200    
   6    1.20       1.20       1.20       1.20       1.20       1.20       1.20       1.20       1.20       1.20       1.20    
        1.20       1.20       1.20       1.20       1.20       1.20       1.20       1.20       1.20      0.200    
   7    1.20       1.20       1.20       1.20       1.20       1.20       1.20       1.20       1.20       1.20       1.20    
        1.20       1.20       1.20       1.20       1.20       1.20       1.20       1.20       1.20      0.200    
   8    1.20       1.20       1.20       1.20       1.20       1.20       1.20       1.20       1.20       1.20       1.20    
        1.20       1.20       1.20       1.20       1.20       1.20       1.20       1.20       1.20      0.200    
   9    1.20       1.20       1.20       1.20       1.20       1.20       1.20       1.20       1.20       1.20       1.20    
        1.20       1.20       1.20       1.20       1.20       1.20       1.20       1.20       1.20      0.200    
  10    1.20       1.20       1.20       1.20       1.20       1.20       1.20       1.20       1.20       1.20       1.20    
        1.20       1.20       1.20       1.20       1.20       1.20       1.20       1.20       1.20      0.200    
  11    1.20       1.20       1.20       1.20       1.20       1.20       1.20       1.20       1.20       1.20       1.20    
        1.20       1.20       1.20       1.20       1.20       1.20       1.20       1.20       1.20      0.200    
  12    1.20       1.20       1.20       1.20       1.20       1.20       1.20       1.20       1.20       1.20       1.20    
        1.20       1.20       1.20       1.20       1.20       1.20       1.20       1.20       1.20      0.200    
  13    1.20       1.20       1.20       1.20       1.20       1.20       1.20       1.20       1.20       1.20       1.20    
        1.20       1.20       1.20       1.20       1.20       1.20       1.20       1.20       1.20      0.200    
  14    1.20       1.20       1.20       1.20       1.20       1.20       1.20       1.20       1.20       1.20       1.20    
        1.20       1.20       1.20       1.20       1.20       1.20       1.20       1.20       1.20      0.200    
  15    1.20       1.20       1.20       1.20       1.20       1.20       1.20       1.20       1.20       1.20       1.20    
        1.20       1.20       1.20       1.20       1.20       1.20       1.20       1.20       1.20      0.200    

                                   Dxx^ Comp. # 001 IN LAYER  2 FOR TIME STEP  1, STRESS PERIOD  1
                                   ---------------------------------------------------------------

           1          2          3          4          5          6          7          8          9         10         11
          12         13         14         15         16         17         18         19         20         21
 ..............................................................................................................................
   1    1.20       1.20       1.20       1.20       1.20       1.20       1.20       1.20       1.20       1.20       1.20    
        1.20       1.20       1.20       1.20       1.20       1.20       1.20       1.20       1.20      0.200    
   2    1.20       1.20       1.20       1.20       1.20       1.20       1.20       1.20       1.20       1.20       1.20    
        1.20       1.20       1.20       1.20       1.20       1.20       1.20       1.20       1.20      0.200    
   3    1.20       1.20       1.20       1.20       1.20       1.20       1.20       1.20       1.20       1.20       1.20    
        1.20       1.20       1.20       1.20       1.20       1.20       1.20       1.20       1.20      0.200    
   4    1.20       1.20       1.20       1.20       1.20       1.20       1.20       1.20       1.20       1.20       1.20    
        1.20       1.20       1.20       1.20       1.20       1.20       1.20       1.20       1.20      0.200    
   5    1.20       1.20       1.20       1.20       1.20       1.20       1.20       1.20       1.20       1.20       1.20    
        1.20       1.20       1.20       1.20       1.20       1.20       1.20       1.20       1.20      0.200    
   6    1.20       1.20       1.20       1.20       1.20       1.20       1.20       1.20       1.20       1.20       1.20    
        1.20       1.20       1.20       1.20       1.20       1.20       1.20       1.20       1.20      0.200    
   7    1.20       1.20       1.20       1.20       1.20       1.20       1.20       1.20       1.20       1.20       1.20    
        1.20       1.20       1.20       1.20       1.20       1.20       1.20       1.20       1.20      0.200    
   8    1.20       1.20       1.20       1.20       1.20       1.20       1.20       1.20       1.20       1.20       1.20    
        1.20       1.20       1.20       1.20       1.20       1.20       1.20       1.20       1.20      0.200    
   9    1.20       1.20       1.20       1.20       1.20       1.20       1.20       1.20       1.20       1.20       1.20    
        1.20       1.20       1.20       1.20       1.20       1.20       1.20       1.20       1.20      0.200    
  10    1.20       1.20       1.20       1.20       1.20       1.20       1.20       1.20       1.20       1.20       1.20    
        1.20       1.20       1.20       1.20       1.20       1.20       1.20       1.20       1.20      0.200    
  11    1.20       1.20       1.20       1.20       1.20       1.20       1.20       1.20       1.20       1.20       1.20    
        1.20       1.20       1.20       1.20       1.20       1.20       1.20       1.20       1.20      0.200    
  12    1.20       1.20       1.20       1.20       1.20       1.20       1.20       1.20       1.20       1.20       1.20    
        1.20       1.20       1.20       1.20       1.20       1.20       1.20       1.20       1.20      0.200    
  13    1.20       1.20       1.20       1.20       1.20       1.20       1.20       1.20       1.20       1.20       1.20    
        1.20       1.20       1.20       1.20       1.20       1.20       1.20       1.20       1.20      0.200    
  14    1.20       1.20       1.20       1.20       1.20       1.20       1.20       1.20       1.20       1.20       1.20    
        1.20       1.20       1.20       1.20       1.20       1.20       1.20       1.20       1.20      0.200    
  15    1.20       1.20       1.20       1.20       1.20       1.20       1.20       1.20       1.20       1.20       1.20    
        1.20       1.20       1.20       1.20       1.20       1.20       1.20       1.20       1.20      0.200    

                                   Dxx^ Comp. # 001 IN LAYER  3 FOR TIME STEP  1, STRESS PERIOD  1
                                   ---------------------------------------------------------------

           1          2          3          4          5          6          7          8          9         10         11
          12         13         14         15         16         17         18         19         20         21
 ..............................................................................................................................
   1    1.20       1.20       1.20       1.20       1.20       1.20       1.20       1.20       1.20       1.20       1.20    
        1.20       1.20       1.20       1.20       1.20       1.20       1.20       1.20       1.20      0.200    
   2    1.20       1.20       1.20       1.20       1.20       1.20       1.20       1.20       1.20       1.20       1.20    
        1.20       1.20       1.20       1.20       1.20       1.20       1.20       1.20       1.20      0.200    
   3    1.20       1.20       1.20       1.20       1.20       1.20       1.20       1.20       1.20       1.20       1.20    
        1.20       1.20       1.20       1.20       1.20       1.20       1.20       1.20       1.20      0.200    
   4    1.20       1.20       1.20       1.20       1.20       1.20       1.20       1.20       1.20       1.20       1.20    
        1.20       1.20       1.20       1.20       1.20       1.20       1.20       1.20       1.20      0.200    
   5    1.20       1.20       1.20       1.20       1.20       1.20       1.20       1.20       1.20       1.20       1.20    
        1.20       1.20       1.20       1.20       1.20       1.20       1.20       1.20       1.20      0.200    
   6    1.20       1.20       1.20       1.20       1.20       1.20       1.20       1.20       1.20       1.20       1.20    
        1.20       1.20       1.20       1.20       1.20       1.20       1.20       1.20       1.20      0.200    
   7    1.20       1.20       1.20       1.20       1.20       1.20       1.20       1.20       1.20       1.20       1.20    
        1.20       1.20       1.20       1.20       1.20       1.20       1.20       1.20       1.20      0.200    
   8    1.20       1.20       1.20       1.20       1.20       1.20       1.20       1.20       1.20       1.20       1.20    
        1.20       1.20       1.20       1.20       1.20       1.20       1.20       1.20       1.20      0.200    
   9    1.20       1.20       1.20       1.20       1.20       1.20       1.20       1.20       1.20       1.20       1.20    