# Basic package file for MODFLOW, generated by Flopy.
 FREE
OPEN/CLOSE           .\ref\FAS_ibnd_L1.ref               1     (FREE) -1 ibound layer 1                
OPEN/CLOSE           .\ref\FAS_ibnd_L2.ref               1     (FREE) -1 ibound layer 2                
OPEN/CLOSE           .\ref\FAS_ibnd_L3.ref               1     (FREE) -1 ibound layer 3                
OPEN/CLOSE           .\ref\FAS_ibnd_L4.ref               1     (FREE) -1 ibound layer 4                
OPEN/CLOSE           .\ref\FAS_ibnd_L5.ref               1     (FREE) -1 ibound layer 5                
OPEN/CLOSE           .\ref\FAS_ibnd_L6.ref               1     (FREE) -1 ibound layer 6                
OPEN/CLOSE           .\ref\FAS_ibnd_L7.ref               1     (FREE) -1 ibound layer 7                
OPEN/CLOSE           .\ref\FAS_ibnd_L8.ref               1     (FREE) -1 ibound layer 8                
OPEN/CLOSE           .\ref\FAS_ibnd_L9.ref               1     (FREE) -1 ibound layer 9                
        -999.99
OPEN/CLOSE   .\ref\dem_3dep_fasft_mean.ref               1     (FREE) -1 strt layer 1                  
OPEN/CLOSE   .\ref\dem_3dep_fasft_mean.ref               1     (FREE) -1 strt layer 2                  
OPEN/CLOSE   .\ref\dem_3dep_fasft_mean.ref               1     (FREE) -1 strt layer 3                  
OPEN/CLOSE   .\ref\dem_3dep_fasft_mean.ref               1     (FREE) -1 strt layer 4                  
OPEN/CLOSE   .\ref\dem_3dep_fasft_mean.ref               1     (FREE) -1 strt layer 5                  
OPEN/CLOSE   .\ref\dem_3dep_fasft_mean.ref               1     (FREE) -1 strt layer 6                  
OPEN/CLOSE   .\ref\dem_3dep_fasft_mean.ref               1     (FREE) -1 strt layer 7                  
OPEN/CLOSE   .\ref\dem_3dep_fasft_mean.ref               1     (FREE) -1 strt layer 8                  
OPEN/CLOSE   .\ref\dem_3dep_fasft_mean.ref               1     (FREE) -1 strt layer 9                  
