# MODFLOW2005 Basic Package
#
#   
FREE
constant 1 -1     IBOUND Layer   1
constant 1 -1     IBOUND Layer   2
9.9900e+02
constant 10. -1   STARTING HEADS Layer   1
constant 30. -1   STARTING HEADS Layer   2
