# File generated by Flopy version 3.5.0.dev0 on 10/30/2023 at 09:00:51.
BEGIN options
  BUDGET  FILEOUT  gwf_bndname01.cbc
  HEAD  FILEOUT  gwf_bndname01.hds
  HEAD  PRINT_FORMAT  COLUMNS  10  WIDTH  15  DIGITS  6  GENERAL
END options

BEGIN period  1
  SAVE  HEAD  ALL
  SAVE  BUDGET  ALL
  PRINT  HEAD  LAST
  PRINT  BUDGET  LAST
END period  1

