# MODFLOW2005 Basic Package
#MODFLOW Data Set Created by Groundwater Vistas
#   
FREE SHOWPROGRESS 
         1         1(25I3)                      -1     IBOUND Layer   1
  1  1  1  1  1  1  1  1  1  1  1  1  1  1  1  1  1  1  1  1
  1  1  1  1  1  1  1  1  1  1  1  1  1  1  1  1  1  1  1  1
  1  1  1  1  1  1  1  1  1  1  1  1  1  1  1  1  1  1  1  1
  1  1  1  1  1  1  1  1  1  1  1  1  1  1  1  1  1  1  1  1
  1  1  1  1  1  1  1  1  1  1  1  1  1  1  1  1  1  1  1  1
  1  1  1  1  1  1  1  1  1  1  1  1  1  1  1  1  1  1  1  1
  1  1  1  1  1  1  1  1  1  1  1  1  1  1  1  1  1  1  1  1
  1  1  1  1  1  1  1  1  1  1  1  1  1  1  1  1  1  1  1  1
  1  1  1  1  0  0  0  1  1  1  1  1  1  1  1  1  1  1  1  1
  1  1  1  1  0  0  0  0  1  1  1  1  1  1  1  1  1  1  1  1
  1  1  1  1  0  0  0  0  1  1  1  1  1  1  1  1  1  1  1  1
  1  1  1  1  0  0  0  0  1  1  1  1  1  1  1  1  1  1  1  1
  1  1  1  1  0  0  0  0  1  1  1  1  1  1  1  1  1  1  1  1
  1  1  1  1  0  0  0  0  1  1  1  1  1  1  1  1  1  1  1  1
  1  1  1  1  0  0  0  0  1  1  1  1  1  1  1  1  1  1  1  1
  1  1  1  1  0  0  0  0  1  1  1  1  1  1  1  1  1  1  1  1
  1  1  1  1  0  0  0  0  1  1  1  1  1  1  1  1  1  1  1  1
  1  1  1  1  0  0  0  0  1  1  1  1  1  1  1  1  1  1  1  1
  1  1  1  1  0  0  0  0  1  1  1  1  1  1  1  1  1  1  1  1
  1  1  1  1  0  0  0  0  1  1  1  1  1  1  1  1  1  1  1  1
  1  1  1  1  0  0  0  0  1  1  1  1  1  1  1  1  1  1  1  1
  1  1  1  1  0  0  1  1  1  1  1  1  1  1  1  1  1  1  1  1
  1  1  1  1  1  0  1  1  1  1  1  1  1  1  1  1  1  1  1  1
  1  1  1  1  1  1  1  1  1  1  1  1  1  1  1  1  1  1  1  1
  1  1  1  1  1  1  1  1  1  1  1  1  1  1  1  1  1  1  1  1
  1  1  1  1  1  1  1  1  1  1  1  1  1  1  1  1  1  1  1  1
  1  1  1  1  1  1  1  1  1  1  1  1  1  1  1  1  1  1  1  1
  1  1  1  1  1  1  1  1  1  1  1  1  1  1  1  1  1  1  1  1
  1  1  1  1  1  1  1  1  1  1  1  1  1  1  1  1  1  1  1  1
  1  1  1  1  1  1  1  1  1  1  1  1  1  1  1  1  1  1  1  1
  1  1  1  1  1  1  1  1  1  1  1  1  1  1  1  1  1  1  1  1
  1  1  1  1  1  1  1  1  1  1  1  1  1  1  1  1  1  1  1  1
  0  1  1  1  1  1  1  1  1  1  1  1  1  1  1  1  1  1  1  1
  0  0  1  1  1  1  1  1  1  1  1  1  1  1  1  1  1  1  1  1
  0  0  0  1  1  1  1  1  1  1  1  1  1  1  1  1  1  1  1  1
  0  0  0  0  1  1  1  1  1  1  1  1  1  1  1  1  1  1  1  0
  0  0  0  0  1  1  1  1  1  1  1  1  1  1  1  1  1  1  1  0
  0  0  0  0  0  1  1  1  1  1  1  1  1  1  1  1  1  1  0  0
  0  0  0  0  0  1  1  1  1  1  1  1  1  1  1  1  1  0  0  0
  0  0  0  0  0 -1 -1 -1 -1 -1 -1 -1 -1 -1 -1  0  0  0  0  0
 999.000000
         1   1.00000(10e12.4)                   -1     STARTING HEADS Layer   1
  4.5000e+01  4.5000e+01  4.5000e+01  4.5000e+01  4.5000e+01  4.5000e+01  4.5000e+01  4.5000e+01  4.5000e+01  4.5000e+01
  4.5000e+01  4.5000e+01  4.5000e+01  4.5000e+01  4.5000e+01  4.5000e+01  4.5000e+01  4.5000e+01  4.5000e+01  4.5000e+01
  4.5000e+01  4.5000e+01  4.5000e+01  4.5000e+01  4.5000e+01  4.5000e+01  4.5000e+01  4.5000e+01  4.5000e+01  4.5000e+01
  4.5000e+01  4.5000e+01  4.5000e+01  4.5000e+01  4.5000e+01  4.5000e+01  4.5000e+01  4.5000e+01  4.5000e+01  4.5000e+01
  4.5000e+01  4.5000e+01  4.5000e+01  4.5000e+01  4.5000e+01  4.5000e+01  4.5000e+01  4.5000e+01  4.5000e+01  4.5000e+01
  4.5000e+01  4.5000e+01  4.5000e+01  4.5000e+01  4.5000e+01  4.5000e+01  4.5000e+01  4.5000e+01  4.5000e+01  4.5000e+01
  4.5000e+01  4.5000e+01  4.5000e+01  4.5000e+01  4.5000e+01  4.5000e+01  4.5000e+01  4.5000e+01  4.5000e+01  4.5000e+01
  4.5000e+01  4.5000e+01  4.5000e+01  4.5000e+01  4.5000e+01  4.5000e+01  4.5000e+01  4.5000e+01  4.5000e+01  4.5000e+01
  4.5000e+01  4.5000e+01  4.5000e+01  4.5000e+01  4.5000e+01  4.5000e+01  4.5000e+01  4.5000e+01  4.5000e+01  4.5000e+01
  4.5000e+01  4.5000e+01  4.5000e+01  4.5000e+01  4.5000e+01  4.5000e+01  4.5000e+01  4.5000e+01  4.5000e+01  4.5000e+01
  4.5000e+01  4.5000e+01  4.5000e+01  4.5000e+01  4.5000e+01  4.5000e+01  4.5000e+01  4.5000e+01  4.5000e+01  4.5000e+01
  4.5000e+01  4.5000e+01  4.5000e+01  4.5000e+01  4.5000e+01  4.5000e+01  4.5000e+01  4.5000e+01  4.5000e+01  4.5000e+01
  4.5000e+01  4.5000e+01  4.5000e+01  4.5000e+01  4.5000e+01  4.5000e+01  4.5000e+01  4.5000e+01  4.5000e+01  4.5000e+01
  4.5000e+01  4.5000e+01  4.5000e+01  4.5000e+01  4.5000e+01  4.5000e+01  4.5000e+01  4.5000e+01  4.5000e+01  4.5000e+01
  4.5000e+01  4.5000e+01  4.5000e+01  4.5000e+01  4.5000e+01  4.5000e+01  4.5000e+01  4.5000e+01  4.5000e+01  4.5000e+01
  4.5000e+01  4.5000e+01  4.5000e+01  4.5000e+01  4.5000e+01  4.5000e+01  4.5000e+01  4.5000e+01  4.5000e+01  4.5000e+01
  4.5000e+01  4.5000e+01  4.5000e+01  4.5000e+01  4.5000e+01  4.5000e+01  4.5000e+01  4.5000e+01  4.5000e+01  4.5000e+01
  4.5000e+01  4.5000e+01  4.5000e+01  4.5000e+01  4.5000e+01  4.5000e+01  4.5000e+01  4.5000e+01  4.5000e+01  4.5000e+01
  4.5000e+01  4.5000e+01  4.5000e+01  4.5000e+01  4.5000e+01  4.5000e+01  4.5000e+01  4.5000e+01  4.5000e+01  4.5000e+01
  4.5000e+01  4.5000e+01  4.5000e+01  4.5000e+01  4.5000e+01  4.5000e+01  4.5000e+01  4.5000e+01  4.5000e+01  4.5000e+01
  4.5000e+01  4.5000e+01  4.5000e+01  4.5000e+01  4.5000e+01  4.5000e+01  4.5000e+01  4.5000e+01  4.5000e+01  4.5000e+01
  4.5000e+01  4.5000e+01  4.5000e+01  4.5000e+01  4.5000e+01  4.5000e+01  4.5000e+01  4.5000e+01  4.5000e+01  4.5000e+01
  4.5000e+01  4.5000e+01  4.5000e+01  4.5000e+01  4.5000e+01  4.5000e+01  4.5000e+01  4.5000e+01  4.5000e+01  4.5000e+01
  4.5000e+01  4.5000e+01  4.5000e+01  4.5000e+01  4.5000e+01  4.5000e+01  4.5000e+01  4.5000e+01  4.5000e+01  4.5000e+01
  4.5000e+01  4.5000e+01  4.5000e+01  4.5000e+01  4.5000e+01  4.5000e+01  4.5000e+01  4.5000e+01  4.5000e+01  4.5000e+01
  4.5000e+01  4.5000e+01  4.5000e+01  4.5000e+01  4.5000e+01  4.5000e+01  4.5000e+01  4.5000e+01  4.5000e+01  4.5000e+01
  4.5000e+01  4.5000e+01  4.5000e+01  4.5000e+01  4.5000e+01  4.5000e+01  4.5000e+01  4.5000e+01  4.5000e+01  4.5000e+01
  4.5000e+01  4.5000e+01  4.5000e+01  4.5000e+01  4.5000e+01  4.5000e+01  4.5000e+01  4.5000e+01  4.5000e+01  4.5000e+01
  4.5000e+01  4.5000e+01  4.5000e+01  4.5000e+01  4.5000e+01  4.5000e+01  4.5000e+01  4.5000e+01  4.5000e+01  4.5000e+01
  4.5000e+01  4.5000e+01  4.5000e+01  4.5000e+01  4.5000e+01  4.5000e+01  4.5000e+01  4.5000e+01  4.5000e+01  4.5000e+01
  4.5000e+01  4.5000e+01  4.5000e+01  4.5000e+01  4.5000e+01  4.5000e+01  4.5000e+01  4.5000e+01  4.5000e+01  4.5000e+01
  4.5000e+01  4.5000e+01  4.5000e+01  4.5000e+01  4.5000e+01  4.5000e+01  4.5000e+01  4.5000e+01  4.5000e+01  4.5000e+01
  4.5000e+01  4.5000e+01  4.5000e+01  4.5000e+01  4.5000e+01  4.5000e+01  4.5000e+01  4.5000e+01  4.5000e+01  4.5000e+01
  4.5000e+01  4.5000e+01  4.5000e+01  4.5000e+01  4.5000e+01  4.5000e+01  4.5000e+01  4.5000e+01  4.5000e+01  4.5000e+01
  4.5000e+01  4.5000e+01  4.5000e+01  4.5000e+01  4.5000e+01  4.5000e+01  4.5000e+01  4.5000e+01  4.5000e+01  4.5000e+01
  4.5000e+01  4.5000e+01  4.5000e+01  4.5000e+01  4.5000e+01  4.5000e+01  4.5000e+01  4.5000e+01  4.5000e+01  4.5000e+01
  4.5000e+01  4.5000e+01  4.5000e+01  4.5000e+01  4.5000e+01  4.5000e+01  4.5000e+01  4.5000e+01  4.5000e+01  4.5000e+01
  4.5000e+01  4.5000e+01  4.5000e+01  4.5000e+01  4.5000e+01  4.5000e+01  4.5000e+01  4.5000e+01  4.5000e+01  4.5000e+01
  4.5000e+01  4.5000e+01  4.5000e+01  4.5000e+01  4.5000e+01  4.5000e+01  4.5000e+01  4.5000e+01  4.5000e+01  4.5000e+01
  4.5000e+01  4.5000e+01  4.5000e+01  4.5000e+01  4.5000e+01  4.5000e+01  4.5000e+01  4.5000e+01  4.5000e+01  4.5000e+01
  4.5000e+01  4.5000e+01  4.5000e+01  4.5000e+01  4.5000e+01  4.5000e+01  4.5000e+01  4.5000e+01  4.5000e+01  4.5000e+01
  4.5000e+01  4.5000e+01  4.5000e+01  4.5000e+01  4.5000e+01  4.5000e+01  4.5000e+01  4.5000e+01  4.5000e+01  4.5000e+01
  4.5000e+01  4.5000e+01  4.5000e+01  4.5000e+01  4.5000e+01  4.5000e+01  4.5000e+01  4.5000e+01  4.5000e+01  4.5000e+01
  4.5000e+01  4.5000e+01  4.5000e+01  4.5000e+01  4.5000e+01  4.5000e+01  4.5000e+01  4.5000e+01  4.5000e+01  4.5000e+01
  4.5000e+01  4.5000e+01  4.5000e+01  4.5000e+01  4.5000e+01  4.5000e+01  4.5000e+01  4.5000e+01  4.5000e+01  4.5000e+01
  4.5000e+01  4.5000e+01  4.5000e+01  4.5000e+01  4.5000e+01  4.5000e+01  4.5000e+01  4.5000e+01  4.5000e+01  4.5000e+01
  4.5000e+01  4.5000e+01  4.5000e+01  4.5000e+01  4.5000e+01  4.5000e+01  4.5000e+01  4.5000e+01  4.5000e+01  4.5000e+01
  4.5000e+01  4.5000e+01  4.5000e+01  4.5000e+01  4.5000e+01  4.5000e+01  4.5000e+01  4.5000e+01  4.5000e+01  4.5000e+01
  4.5000e+01  4.5000e+01  4.5000e+01  4.5000e+01  4.5000e+01  4.5000e+01  4.5000e+01  4.5000e+01  4.5000e+01  4.5000e+01
  4.5000e+01  4.5000e+01  4.5000e+01  4.5000e+01  4.5000e+01  4.5000e+01  4.5000e+01  4.5000e+01  4.5000e+01  4.5000e+01
  4.5000e+01  4.5000e+01  4.5000e+01  4.5000e+01  4.5000e+01  4.5000e+01  4.5000e+01  4.5000e+01  4.5000e+01  4.5000e+01
  4.5000e+01  4.5000e+01  4.5000e+01  4.5000e+01  4.5000e+01  4.5000e+01  4.5000e+01  4.5000e+01  4.5000e+01  4.5000e+01
  4.5000e+01  4.5000e+01  4.5000e+01  4.5000e+01  4.5000e+01  4.5000e+01  4.5000e+01  4.5000e+01  4.5000e+01  4.5000e+01
  4.5000e+01  4.5000e+01  4.5000e+01  4.5000e+01  4.5000e+01  4.5000e+01  4.5000e+01  4.5000e+01  4.5000e+01  4.5000e+01
  4.5000e+01  4.5000e+01  4.5000e+01  4.5000e+01  4.5000e+01  4.5000e+01  4.5000e+01  4.5000e+01  4.5000e+01  4.5000e+01
  4.5000e+01  4.5000e+01  4.5000e+01  4.5000e+01  4.5000e+01  4.5000e+01  4.5000e+01  4.5000e+01  4.5000e+01  4.5000e+01
  4.5000e+01  4.5000e+01  4.5000e+01  4.5000e+01  4.5000e+01  4.5000e+01  4.5000e+01  4.5000e+01  4.5000e+01  4.5000e+01
  4.5000e+01  4.5000e+01  4.5000e+01  4.5000e+01  4.5000e+01  4.5000e+01  4.5000e+01  4.5000e+01  4.5000e+01  4.5000e+01
  4.5000e+01  4.5000e+01  4.5000e+01  4.5000e+01  4.5000e+01  4.5000e+01  4.5000e+01  4.5000e+01  4.5000e+01  4.5000e+01
  4.5000e+01  4.5000e+01  4.5000e+01  4.5000e+01  4.5000e+01  4.5000e+01  4.5000e+01  4.5000e+01  4.5000e+01  4.5000e+01
  4.5000e+01  4.5000e+01  4.5000e+01  4.5000e+01  4.5000e+01  4.5000e+01  4.5000e+01  4.5000e+01  4.5000e+01  4.5000e+01
  4.5000e+01  4.5000e+01  4.5000e+01  4.5000e+01  4.5000e+01  4.5000e+01  4.5000e+01  4.5000e+01  4.5000e+01  4.5000e+01
  4.5000e+01  4.5000e+01  4.5000e+01  4.5000e+01  4.5000e+01  4.5000e+01  4.5000e+01  4.5000e+01  4.5000e+01  4.5000e+01
  4.5000e+01  4.5000e+01  4.5000e+01  4.5000e+01  4.5000e+01  4.5000e+01  4.5000e+01  4.5000e+01  4.5000e+01  4.5000e+01
  4.5000e+01  4.5000e+01  4.5000e+01  4.5000e+01  4.5000e+01  4.5000e+01  4.5000e+01  4.5000e+01  4.5000e+01  4.5000e+01
  4.5000e+01  4.5000e+01  4.5000e+01  4.5000e+01  4.5000e+01  4.5000e+01  4.5000e+01  4.5000e+01  4.5000e+01  4.5000e+01
  4.5000e+01  4.5000e+01  4.5000e+01  4.5000e+01  4.5000e+01  4.5000e+01  4.5000e+01  4.5000e+01  4.5000e+01  4.5000e+01
  4.5000e+01  4.5000e+01  4.5000e+01  4.5000e+01  4.5000e+01  4.5000e+01  4.5000e+01  4.5000e+01  4.5000e+01  4.5000e+01
  4.5000e+01  4.5000e+01  4.5000e+01  4.5000e+01  4.5000e+01  4.5000e+01  4.5000e+01  4.5000e+01  4.5000e+01  4.5000e+01
  4.5000e+01  4.5000e+01  4.5000e+01  4.5000e+01  4.5000e+01  4.5000e+01  4.5000e+01  4.5000e+01  4.5000e+01  4.5000e+01
  4.5000e+01  4.5000e+01  4.5000e+01  4.5000e+01  4.5000e+01  4.5000e+01  4.5000e+01  4.5000e+01  4.5000e+01  4.5000e+01
  4.5000e+01  4.5000e+01  4.5000e+01  4.5000e+01  4.5000e+01  4.5000e+01  4.5000e+01  4.5000e+01  4.5000e+01  4.5000e+01
  4.5000e+01  4.5000e+01  4.5000e+01  4.5000e+01  4.5000e+01  4.5000e+01  4.5000e+01  4.5000e+01  4.5000e+01  4.5000e+01
  4.5000e+01  4.5000e+01  4.5000e+01  4.5000e+01  4.5000e+01  4.5000e+01  4.5000e+01  4.5000e+01  4.5000e+01  4.5000e+01
  4.5000e+01  4.5000e+01  4.5000e+01  4.5000e+01  4.5000e+01  4.5000e+01  4.5000e+01  4.5000e+01  4.5000e+01  4.5000e+01
  4.5000e+01  4.5000e+01  4.5000e+01  4.5000e+01  4.5000e+01  4.5000e+01  4.5000e+01  4.5000e+01  4.5000e+01  4.5000e+01
  4.5000e+01  4.5000e+01  4.5000e+01  4.5000e+01  4.5000e+01  4.5000e+01  4.5000e+01  4.5000e+01  4.5000e+01  4.5000e+01
  4.5000e+01  4.5000e+01  4.5000e+01  4.5000e+01  4.5000e+01  4.5000e+01  4.5000e+01  4.5000e+01  4.5000e+01  4.5000e+01
  4.5000e+01  4.5000e+01  4.5000e+01  4.5000e+01  4.5000e+01  1.6900e+01  1.6400e+01  1.6100e+01  1.5600e+01  1.5100e+01
  1.4000e+01  1.3000e+01  1.2500e+01  1.2000e+01  1.1400e+01  4.5000e+01  4.5000e+01  4.5000e+01  4.5000e+01  4.5000e+01
