# MODFLOW-USG Layer Property Flow (LPF) Package
 0 -1.000000e+030 0 0      CONSTANTCV NOVFC
 0 0 0 0 0
 0 0 0 0 0
 1.000000e+000
 1.000000e+000
 1.000000e+000
 1.000000e+000
 1.000000e+000
 0 0 0 0 0
 0 0 0 0 0
INTERNAL  1.000000e+000  (FREE)  -1  Kx Layer 1
 1.250000e+004 1.250000e+004 1.250000e+004 1.250000e+004 1.250000e+004 1.250000e+004 1.250000e+004 1.250000e+004 1.250000e+004 1.250000e+004
 1.250000e+004 1.250000e+004 1.250000e+004 1.250000e+004 1.250000e+004 1.250000e+004 1.250000e+004 1.250000e+004 1.250000e+004 1.250000e+004
 1.250000e+004 1.250000e+004 1.250000e+004 1.250000e+004 1.250000e+004 1.250000e+004 1.250000e+004 1.250000e+004 1.250000e+004 1.250000e+004
 1.250000e+004 1.250000e+004 1.250000e+004 1.250000e+004 1.250000e+004 1.250000e+004 1.250000e+004 1.250000e+004 1.250000e+004 1.250000e+004
 1.250000e+004 1.250000e+004 1.250000e+004 1.250000e+004 1.250000e+004 1.250000e+004 1.250000e+004 1.250000e+004 1.250000e+004 1.250000e+004
 1.250000e+004 1.250000e+004 1.250000e+004 1.250000e+004 1.250000e+004 1.250000e+004 1.250000e+004 1.250000e+004 1.250000e+004 1.250000e+004
 1.250000e+004 1.250000e+004 1.250000e+004 1.250000e+004 1.250000e+004 1.250000e+004 1.250000e+004 1.250000e+004 1.250000e+004 1.250000e+004
 1.250000e+004 1.250000e+004 1.250000e+004 1.250000e+004 1.250000e+004 1.250000e+004 1.250000e+004 1.250000e+004 1.250000e+004 1.250000e+004
 1.250000e+004 1.250000e+004 1.250000e+004 1.250000e+004 1.250000e+004 1.250000e+004 1.250000e+004 1.250000e+004 1.250000e+004 1.250000e+004
 1.250000e+004 1.250000e+004 1.250000e+004 1.250000e+004 1.250000e+004 1.250000e+004 1.250000e+004 1.250000e+004 1.250000e+004 1.250000e+004
 1.250000e+004 1.250000e+004 1.250000e+004 1.250000e+004 1.250000e+004 1.250000e+004 1.250000e+004 1.250000e+004 1.250000e+004 1.250000e+004
 1.250000e+004 1.250000e+004 1.250000e+004 1.250000e+004 1.250000e+004 1.250000e+004 1.250000e+004 1.250000e+004 1.250000e+004 1.250000e+004
 1.250000e+004 1.250000e+004 1.250000e+004 1.250000e+004 1.250000e+004 1.250000e+004 1.250000e+004 1.250000e+004 1.250000e+004 1.250000e+004
 1.250000e+004 1.250000e+004 1.250000e+004 1.250000e+004 1.250000e+004 1.250000e+004 1.250000e+004 1.250000e+004 1.250000e+004 1.250000e+004
 1.250000e+004 1.250000e+004 1.250000e+004 1.250000e+004 1.250000e+004 1.250000e+004 1.250000e+004 1.250000e+004 1.250000e+004 1.250000e+004
 1.250000e+004 1.250000e+004 1.250000e+004 1.250000e+004 1.250000e+004 1.250000e+004 1.250000e+004 1.250000e+004 1.250000e+004 1.250000e+004
 1.250000e+004 1.250000e+004 1.250000e+004 1.250000e+004 1.250000e+004 1.250000e+004 1.250000e+004 1.250000e+004 1.250000e+004 1.250000e+004
 1.250000e+004 1.250000e+004 1.250000e+004 1.250000e+004 1.250000e+004 1.250000e+004 1.250000e+004 1.250000e+004 1.250000e+004 1.250000e+004
 1.250000e+004 1.250000e+004 1.250000e+004 1.250000e+004 1.250000e+004 1.250000e+004 1.250000e+004 1.250000e+004 1.250000e+004 1.250000e+004
 1.250000e+004 1.250000e+004 1.250000e+004 1.250000e+004 1.250000e+004 1.250000e+004 1.250000e+004 1.250000e+004 1.250000e+004 1.250000e+004
 1.250000e+004 1.250000e+004 1.250000e+004 1.250000e+004 1.250000e+004 1.250000e+004 1.250000e+004 1.250000e+004 1.250000e+004 1.250000e+004
 1.250000e+004 1.250000e+004 1.250000e+004 1.250000e+004 1.250000e+004 1.250000e+004 1.250000e+004 1.250000e+004 1.250000e+004 1.250000e+004
 1.250000e+004 1.250000e+004 1.250000e+004 1.250000e+004 1.250000e+004 1.250000e+004 1.250000e+004 1.250000e+004 1.250000e+004 1.250000e+004
 1.250000e+004 1.250000e+004 1.250000e+004 1.250000e+004 1.250000e+004 1.250000e+004 1.250000e+004 1.250000e+004 1.250000e+004 1.250000e+004
 1.250000e+004 1.250000e+004 1.250000e+004 1.250000e+004 1.250000e+004 1.250000e+004 1.250000e+004 1.250000e+004 1.250000e+004 1.250000e+004
 1.250000e+004 1.250000e+004 1.250000e+004 1.250000e+004 1.250000e+004 1.250000e+004 1.250000e+004 1.250000e+004 1.250000e+004 1.250000e+004
 1.250000e+004 1.250000e+004 1.250000e+004 1.250000e+004 1.250000e+004 1.250000e+004 1.250000e+004 1.250000e+004 1.250000e+004 1.250000e+004
 1.250000e+004 1.250000e+004 1.250000e+004 1.250000e+004 1.250000e+004 1.250000e+004 1.250000e+004 1.250000e+004 1.250000e+004 1.250000e+004
 1.250000e+004 1.250000e+004 1.250000e+004 1.250000e+004 1.250000e+004 1.250000e+004 1.250000e+004 1.250000e+004 1.250000e+004 1.250000e+004
 1.250000e+004 1.250000e+004 1.250000e+004 1.250000e+004 1.250000e+004 1.250000e+004 1.250000e+004 1.250000e+004 1.250000e+004 1.250000e+004
 1.250000e+004 1.250000e+004 1.250000e+004 1.250000e+004 1.250000e+004 1.250000e+004 1.250000e+004 1.250000e+004 1.250000e+004 1.250000e+004
 1.250000e+004 1.250000e+004 1.250000e+004 1.250000e+004 1.250000e+004 1.250000e+004 1.250000e+004 1.250000e+004 1.250000e+004 1.250000e+004
 1.250000e+004 1.250000e+004 1.250000e+004 1.250000e+004 1.250000e+004 1.250000e+004 1.250000e+004 1.250000e+004 1.250000e+004 1.250000e+004
 1.250000e+004 1.250000e+004 1.250000e+004 1.250000e+004 1.250000e+004 1.250000e+004 1.250000e+004 1.250000e+004 1.250000e+004 1.250000e+004
 1.250000e+004 1.250000e+004 1.250000e+004 1.250000e+004 1.250000e+004 1.250000e+004 1.250000e+004 1.250000e+004 1.250000e+004 1.250000e+004
 1.250000e+004 1.250000e+004 1.250000e+004 1.250000e+004 1.250000e+004 1.250000e+004 1.250000e+004 1.250000e+004 1.250000e+004 1.250000e+004
 1.250000e+004 1.250000e+004 1.250000e+004 1.250000e+004 1.250000e+004 1.250000e+004 1.250000e+004 1.250000e+004 1.250000e+004 1.250000e+004
 1.250000e+004 1.250000e+004 1.250000e+004 1.250000e+004 1.250000e+004 1.250000e+004 1.250000e+004 1.250000e+004 1.250000e+004 1.250000e+004
 1.250000e+004 1.250000e+004 1.250000e+004 1.250000e+004 1.250000e+004 1.250000e+004 1.250000e+004 1.250000e+004 1.250000e+004 1.250000e+004
 1.250000e+004 1.250000e+004 1.250000e+004 1.250000e+004 1.250000e+004 1.250000e+004 1.250000e+004 1.250000e+004 1.250000e+004 1.250000e+004
 1.250000e+004 1.250000e+004 1.250000e+004 1.250000e+004 1.250000e+004 1.250000e+004 1.250000e+004 1.250000e+004 1.250000e+004 1.250000e+004
 1.250000e+004 1.250000e+004 1.250000e+004 1.250000e+004 1.250000e+004 1.250000e+004 1.250000e+004 1.250000e+004 1.250000e+004 1.250000e+004
 1.250000e+004 1.250000e+004 1.250000e+004 1.250000e+004 1.250000e+004 1.250000e+004 1.250000e+004 1.250000e+004 1.250000e+004 1.250000e+004
 1.250000e+004 1.250000e+004 1.250000e+004 1.250000e+004 1.250000e+004 1.250000e+004 1.250000e+004 1.250000e+004 1.250000e+004 1.250000e+004
 1.250000e+004 1.250000e+004 1.250000e+004 1.250000e+004 1.250000e+004 1.250000e+004 1.250000e+004 1.250000e+004 1.250000e+004 1.250000e+004
 1.250000e+004 1.250000e+004 1.250000e+004 1.250000e+004 1.250000e+004 1.250000e+004 1.250000e+004 1.250000e+004 1.250000e+004 1.250000e+004
 1.250000e+004 1.250000e+004 1.250000e+004 1.250000e+004 1.250000e+004 1.250000e+004 1.250000e+004 1.250000e+004 1.250000e+004 1.250000e+004
 1.250000e+004 1.250000e+004 1.250000e+004 1.250000e+004 1.250000e+004 1.250000e+004 1.250000e+004 1.250000e+004 1.250000e+004 1.250000e+004
 1.250000e+004 1.250000e+004 1.250000e+004 1.250000e+004 1.250000e+004 1.250000e+004 1.250000e+004 1.250000e+004 1.250000e+004 1.250000e+004
 1.250000e+004 1.250000e+004 1.250000e+004 1.250000e+004 1.250000e+004 1.250000e+004 1.250000e+004 1.250000e+004 1.250000e+004 1.250000e+004
 1.250000e+004 1.250000e+004 1.250000e+004 1.250000e+004 1.250000e+004 1.250000e+004 1.250000e+004 1.250000e+004 1.250000e+004 1.250000e+004
 1.250000e+004 1.250000e+004 1.250000e+004 1.250000e+004 1.250000e+004 1.250000e+004 1.250000e+004 1.250000e+004 1.250000e+004 1.250000e+004
 1.250000e+004 1.250000e+004 1.250000e+004 1.250000e+004 1.250000e+004 1.250000e+004 1.250000e+004 1.250000e+004 1.250000e+004 1.250000e+004
 1.250000e+004 1.250000e+004 1.250000e+004 1.250000e+004 1.250000e+004 1.250000e+004 1.250000e+004 1.250000e+004 1.250000e+004 1.250000e+004
 1.250000e+004 1.250000e+004 1.250000e+004 1.250000e+004 1.250000e+004 1.250000e+004 1.250000e+004 1.250000e+004 1.250000e+004 1.250000e+004
 1.250000e+004 1.250000e+004 1.250000e+004 1.250000e+004 1.250000e+004 1.250000e+004 1.250000e+004 1.250000e+004 1.250000e+004 1.250000e+004
 1.250000e+004 1.250000e+004 1.250000e+004 1.250000e+004 1.250000e+004 1.250000e+004 1.250000e+004 1.250000e+004 1.250000e+004 1.250000e+004
 1.250000e+004 1.250000e+004 1.250000e+004 1.250000e+004 1.250000e+004 1.250000e+004 1.250000e+004 1.250000e+004 1.250000e+004 1.250000e+004
 1.250000e+004 1.250000e+004 1.250000e+004 1.250000e+004 1.250000e+004 1.250000e+004 1.250000e+004 1.250000e+004 1.250000e+004 1.250000e+004
 1.250000e+004 1.250000e+004 1.250000e+004 1.250000e+004 1.250000e+004 1.250000e+004 1.250000e+004 1.250000e+004 1.250000e+004 1.250000e+004
 1.250000e+004 1.250000e+004 1.250000e+004 1.250000e+004 1.250000e+004 1.250000e+004 1.250000e+004 1.250000e+004 1.250000e+004 1.250000e+004
 1.250000e+004 1.250000e+004 1.250000e+004 1.250000e+004 1.250000e+004 1.250000e+004 1.250000e+004 1.250000e+004 1.250000e+004 1.250000e+004
 1.250000e+004 1.250000e+004 1.250000e+004 1.250000e+004 1.250000e+004 1.250000e+004 1.250000e+004 1.250000e+004 1.250000e+004 1.250000e+004
 1.250000e+004 1.250000e+004 1.250000e+004 1.250000e+004 1.250000e+004 1.250000e+004 1.250000e+004 1.250000e+004 1.250000e+004 1.250000e+004
 1.250000e+004 1.250000e+004 1.250000e+004 1.250000e+004 1.250000e+004 1.250000e+004 1.250000e+004 1.250000e+004 1.250000e+004 1.250000e+004
 1.250000e+004 1.250000e+004 1.250000e+004 1.250000e+004 1.250000e+004 1.250000e+004 1.250000e+004 1.250000e+004 1.250000e+004 1.250000e+004
 1.250000e+004 1.250000e+004 1.250000e+004 1.250000e+004 1.250000e+004 1.250000e+004 1.250000e+004 1.250000e+004 1.250000e+004 1.250000e+004
 1.250000e+004 1.250000e+004 1.250000e+004 1.250000e+004 1.250000e+004 1.250000e+004 1.250000e+004 1.250000e+004 1.250000e+004 1.250000e+004
 1.250000e+004 1.250000e+004 1.250000e+004 1.250000e+004 1.250000e+004 1.250000e+004 1.250000e+004 1.250000e+004 1.250000e+004 1.250000e+004
 1.250000e+004 1.250000e+004 1.250000e+004 1.250000e+004 1.250000e+004 1.250000e+004 1.250000e+004 1.250000e+004 1.250000e+004 1.250000e+004
 1.250000e+004 1.250000e+004 1.250000e+004 1.250000e+004 1.250000e+004 1.250000e+004 1.250000e+004 1.250000e+004 1.250000e+004 1.250000e+004
 1.250000e+004 1.250000e+004 1.250000e+004 1.250000e+004 1.250000e+004 1.250000e+004 1.250000e+004 1.250000e+004 1.250000e+004 1.250000e+004
 1.250000e+004 1.250000e+004 1.250000e+004 1.250000e+004 1.250000e+004 1.250000e+004 1.250000e+004 1.250000e+004 1.250000e+004 1.250000e+004
 1.250000e+004 1.250000e+004 1.250000e+004 1.250000e+004 1.250000e+004 1.250000e+004 1.250000e+004 1.250000e+004 1.250000e+004 1.250000e+004
 1.250000e+004 1.250000e+004 1.250000e+004 1.250000e+004 1.250000e+004 1.250000e+004 1.250000e+004 1.250000e+004 1.250000e+004 1.250000e+004
 1.250000e+004 1.250000e+004 1.250000e+004 1.250000e+004 1.250000e+004 1.250000e+004 1.250000e+004 1.250000e+004 1.250000e+004 1.250000e+004
 1.250000e+004 1.250000e+004 1.250000e+004 1.250000e+004 1.250000e+004 1.250000e+004 1.250000e+004 1.250000e+004 1.250000e+004 1.250000e+004
 1.250000e+004 1.250000e+004 1.250000e+004 1.250000e+004 1.250000e+004 1.250000e+004 1.250000e+004 1.250000e+004 1.250000e+004 1.250000e+004
 1.250000e+004 1.250000e+004 1.250000e+004 1.250000e+004 1.250000e+004 1.250000e+004 1.250000e+004 1.250000e+004 1.250000e+004 1.250000e+004
 1.250000e+004 1.250000e+004 1.250000e+004 1.250000e+004 1.250000e+004 1.250000e+004 1.250000e+004 1.250000e+004 1.250000e+004 1.250000e+004
 1.250000e+004 1.250000e+004 1.250000e+004 1.250000e+004 1.250000e+004 1.250000e+004 1.250000e+004 1.250000e+004 1.250000e+004 1.250000e+004
 1.250000e+004 1.250000e+004 1.250000e+004 1.250000e+004 1.250000e+004 1.250000e+004 1.250000e+004 1.250000e+004 1.250000e+004 1.250000e+004
 1.250000e+004 1.250000e+004 1.250000e+004 1.250000e+004 1.250000e+004 1.250000e+004 1.250000e+004 1.250000e+004 1.250000e+004 1.250000e+004
 1.250000e+004 1.250000e+004 1.250000e+004 1.250000e+004 1.250000e+004 1.250000e+004 1.250000e+004 1.250000e+004 1.250000e+004 1.250000e+004
 1.250000e+004 1.250000e+004 1.250000e+004 1.250000e+004 1.250000e+004 1.250000e+004 1.250000e+004 1.250000e+004 1.250000e+004 1.250000e+004
 1.250000e+004 1.250000e+004 1.250000e+004 1.250000e+004 1.250000e+004 1.250000e+004 1.250000e+004 1.250000e+004 1.250000e+004 1.250000e+004
 1.250000e+004 1.250000e+004 1.250000e+004 1.250000e+004 1.250000e+004 1.250000e+004 1.250000e+004 1.250000e+004 1.250000e+004 1.250000e+004
 1.250000e+004 1.250000e+004 1.250000e+004 1.250000e+004 1.250000e+004 1.250000e+004 1.250000e+004 1.250000e+004 1.250000e+004 1.250000e+004
 1.250000e+004 1.250000e+004 1.250000e+004 1.250000e+004 1.250000e+004 1.250000e+004 1.250000e+004 1.250000e+004 1.250000e+004 1.250000e+004
 1.250000e+004 1.250000e+004 1.250000e+004 1.250000e+004 1.250000e+004 1.250000e+004 1.250000e+004 1.250000e+004 1.250000e+004 1.250000e+004
 1.250000e+004 1.250000e+004 1.250000e+004 1.250000e+004 1.250000e+004 1.250000e+004 1.250000e+004 1.250000e+004 1.250000e+004 1.250000e+004
 1.250000e+004 1.250000e+004 1.250000e+004 1.250000e+004 1.250000e+004 1.250000e+004 1.250000e+004 1.250000e+004 1.250000e+004 1.250000e+004
 1.250000e+004 1.250000e+004 1.250000e+004 1.250000e+004 1.250000e+004 1.250000e+004 1.250000e+004 1.250000e+004 1.250000e+004 1.250000e+004
 1.250000e+004 1.250000e+004 1.250000e+004 1.250000e+004 1.250000e+004 1.250000e+004 1.250000e+004 1.250000e+004 1.250000e+004 1.250000e+004
 1.250000e+004 1.250000e+004 1.250000e+004 1.250000e+004 1.250000e+004 1.250000e+004 1.250000e+004 1.250000e+004 1.250000e+004 1.250000e+004
 1.250000e+004 1.250000e+004 1.250000e+004 1.250000e+004 1.250000e+004 1.250000e+004 1.250000e+004 1.250000e+004 1.250000e+004 1.250000e+004
 1.250000e+004 1.250000e+004 1.250000e+004 1.250000e+004 1.250000e+004 1.250000e+004 1.250000e+004 1.250000e+004 1.250000e+004 1.250000e+004
 1.250000e+004 1.250000e+004 1.250000e+004 1.250000e+004 1.250000e+004 1.250000e+004 1.250000e+004 1.250000e+004 1.250000e+004 1.250000e+004
 1.250000e+004 1.250000e+004 1.250000e+004 1.250000e+004 1.250000e+004 1.250000e+004 1.250000e+004 1.250000e+004 1.250000e+004 1.250000e+004
 1.250000e+004 1.250000e+004 1.250000e+004 1.250000e+004 1.250000e+004 1.250000e+004 1.250000e+004 1.250000e+004 1.250000e+004 1.250000e+004
 1.250000e+004 1.250000e+004 1.250000e+004 1.250000e+004 1.250000e+004 1.250000e+004 1.250000e+004 1.250000e+004 1.250000e+004 1.250000e+004
 1.250000e+004 1.250000e+004 1.250000e+004 1.250000e+004 1.250000e+004 1.250000e+004 1.250000e+004 1.250000e+004 1.250000e+004 1.250000e+004
 1.250000e+004 1.250000e+004 1.250000e+004 1.250000e+004 1.250000e+004 1.250000e+004 1.250000e+004 1.250000e+004 1.250000e+004 1.250000e+004
 1.250000e+004 1.250000e+004 1.250000e+004 1.250000e+004 1.250000e+004 1.250000e+004 1.250000e+004 1.250000e+004 1.250000e+004 1.250000e+004
 1.250000e+004 1.250000e+004 1.250000e+004 1.250000e+004 1.250000e+004 1.250000e+004 1.250000e+004 1.250000e+004 1.250000e+004 1.250000e+004
 1.250000e+004 1.250000e+004 1.250000e+004 1.250000e+004 1.250000e+004 1.250000e+004 1.250000e+004 1.250000e+004 1.250000e+004 1.250000e+004
 1.250000e+004 1.250000e+004 1.250000e+004 1.250000e+004 1.250000e+004 1.250000e+004 1.250000e+004 1.250000e+004 1.250000e+004 1.250000e+004
 1.250000e+004 1.250000e+004 1.250000e+004 1.250000e+004 1.250000e+004 1.250000e+004 1.250000e+004 1.250000e+004 1.250000e+004 1.250000e+004
 1.250000e+004 1.250000e+004 1.250000e+004 1.250000e+004 1.250000e+004 1.250000e+004 1.250000e+004 1.250000e+004 1.250000e+004 1.250000e+004
 1.250000e+004 1.250000e+004 1.250000e+004 1.250000e+004 1.250000e+004 1.250000e+004 1.250000e+004 1.250000e+004 1.250000e+004 1.250000e+004
 1.250000e+004 1.250000e+004 1.250000e+004 1.250000e+004 1.250000e+004 1.250000e+004 1.250000e+004 1.250000e+004 1.250000e+004 1.250000e+004
 1.250000e+004 1.250000e+004 1.250000e+004 1.250000e+004 1.250000e+004 1.250000e+004 1.250000e+004 1.250000e+004 1.250000e+004 1.250000e+004
 1.250000e+004 1.250000e+004 1.250000e+004 1.250000e+004 1.250000e+004 1.250000e+004 1.250000e+004 1.250000e+004 1.250000e+004 1.250000e+004
 1.250000e+004 1.250000e+004 1.250000e+004 1.250000e+004 1.250000e+004 1.250000e+004 1.250000e+004 1.250000e+004 1.250000e+004 1.250000e+004
 1.250000e+004 1.250000e+004 1.250000e+004 1.250000e+004 1.250000e+004 1.250000e+004 1.250000e+004 1.250000e+004 1.250000e+004 1.250000e+004
 1.250000e+004 1.250000e+004 1.250000e+004 1.250000e+004 1.250000e+004 1.250000e+004 1.250000e+004 1.250000e+004 1.250000e+004 1.250000e+004
 1.250000e+004 1.250000e+004 1.250000e+004 1.250000e+004 1.250000e+004 1.250000e+004 1.250000e+004 1.250000e+004 1.250000e+004 1.250000e+004
 1.250000e+004 1.250000e+004 1.250000e+004 1.250000e+004 1.250000e+004 1.250000e+004 1.250000e+004 1.250000e+004 1.250000e+004 1.250000e+004
 1.250000e+004 1.250000e+004 1.250000e+004 1.250000e+004 1.250000e+004 1.250000e+004 1.250000e+004 1.250000e+004 1.250000e+004 1.250000e+004
 1.250000e+004 1.250000e+004 1.250000e+004 1.250000e+004 1.250000e+004 1.250000e+004 1.250000e+004 1.250000e+004 1.250000e+004 1.250000e+004
 1.250000e+004 1.250000e+004 1.250000e+004 1.250000e+004 1.250000e+004 1.250000e+004 1.250000e+004 1.250000e+004 1.250000e+004 1.250000e+004
 1.250000e+004 1.250000e+004 1.250000e+004 1.250000e+004 1.250000e+004 1.250000e+004 1.250000e+004 1.250000e+004 1.250000e+004 1.250000e+004
 1.250000e+004 1.250000e+004 1.250000e+004 1.250000e+004 1.250000e+004 1.250000e+004 1.250000e+004 1.250000e+004 1.250000e+004 1.250000e+004
 1.250000e+004 1.250000e+004 1.250000e+004 1.250000e+004 1.250000e+004 1.250000e+004 1.250000e+004 1.250000e+004 1.250000e+004 1.250000e+004
 1.250000e+004 1.250000e+004 1.250000e+004 1.250000e+004 1.250000e+004 1.250000e+004 1.250000e+004 1.250000e+004 1.250000e+004 1.250000e+004
 1.250000e+004 1.250000e+004 1.250000e+004 1.250000e+004 1.250000e+004 1.250000e+004 1.250000e+004 1.250000e+004 1.250000e+004 1.250000e+004
 1.250000e+004 1.250000e+004 1.250000e+004 1.250000e+004 1.250000e+004 1.250000e+004 1.250000e+004 1.250000e+004 1.250000e+004 1.250000e+004
 1.250000e+004 1.250000e+004 1.250000e+004 1.250000e+004 1.250000e+004 1.250000e+004 1.250000e+004 1.250000e+004 1.250000e+004 1.250000e+004
 1.250000e+004 1.250000e+004 1.250000e+004 1.250000e+004 1.250000e+004 1.250000e+004 1.250000e+004 1.250000e+004 1.250000e+004 1.250000e+004
 1.250000e+004 1.250000e+004 1.250000e+004 1.250000e+004 1.250000e+004 1.250000e+004 1.250000e+004 1.250000e+004 1.250000e+004 1.250000e+004
 1.250000e+004 1.250000e+004 1.250000e+004 1.250000e+004 1.250000e+004 1.250000e+004 1.250000e+004 1.250000e+004 1.250000e+004 1.250000e+004
 1.250000e+004 1.250000e+004 1.250000e+004 1.250000e+004 1.250000e+004 1.250000e+004 1.250000e+004 1.250000e+004 1.250000e+004 1.250000e+004
 1.250000e+004 1.250000e+004 1.250000e+004 1.250000e+004 1.250000e+004 1.250000e+004 1.250000e+004 1.250000e+004 1.250000e+004 1.250000e+004
 1.250000e+004 1.250000e+004 1.250000e+004 1.250000e+004 1.250000e+004 1.250000e+004 1.250000e+004 1.250000e+004 1.250000e+004 1.250000e+004
 1.250000e+004 1.250000e+004 1.250000e+004 1.250000e+004 1.250000e+004 1.250000e+004 1.250000e+004 1.250000e+004 1.250000e+004 1.250000e+004
 1.250000e+004 1.250000e+004 1.250000e+004 1.250000e+004 1.250000e+004 1.250000e+004 1.250000e+004 1.250000e+004 1.250000e+004 1.250000e+004
 1.250000e+004 1.250000e+004 1.250000e+004 1.250000e+004 1.250000e+004 1.250000e+004 1.250000e+004 1.250000e+004 1.250000e+004 1.250000e+004
 1.250000e+004 1.250000e+004 1.250000e+004 1.250000e+004 1.250000e+004 1.250000e+004 1.250000e+004 1.250000e+004 1.250000e+004 1.250000e+004
 1.250000e+004 1.250000e+004 1.250000e+004 1.250000e+004 1.250000e+004 1.250000e+004 1.250000e+004 1.250000e+004 1.250000e+004 1.250000e+004
 1.250000e+004 1.250000e+004 1.250000e+004 1.250000e+004 1.250000e+004 1.250000e+004 1.250000e+004 1.250000e+004 1.250000e+004 1.250000e+004
 1.250000e+004 1.250000e+004 1.250000e+004 1.250000e+004 1.250000e+004 1.250000e+004 1.250000e+004 1.250000e+004 1.250000e+004 1.250000e+004
 1.250000e+004 1.250000e+004 1.250000e+004 1.250000e+004 1.250000e+004 1.250000e+004 1.250000e+004 1.250000e+004 1.250000e+004 1.250000e+004
 1.250000e+004 1.250000e+004 1.250000e+004 1.250000e+004 1.250000e+004 1.250000e+004 1.250000e+004 1.250000e+004 1.250000e+004 1.250000e+004
 1.250000e+004 1.250000e+004 1.250000e+004 1.250000e+004 1.250000e+004 1.250000e+004 1.250000e+004 1.250000e+004 1.250000e+004 1.250000e+004
 1.250000e+004 1.250000e+004 1.250000e+004 1.250000e+004 1.250000e+004 1.250000e+004 1.250000e+004 1.250000e+004 1.250000e+004 1.250000e+004
 1.250000e+004 1.250000e+004 1.250000e+004 1.250000e+004 1.250000e+004 1.250000e+004 1.250000e+004 1.250000e+004 1.250000e+004 1.250000e+004
 1.250000e+004 1.250000e+004 1.250000e+004 1.250000e+004 1.250000e+004 1.250000e+004 1.250000e+004 1.250000e+004 1.250000e+004 1.250000e+004
 1.250000e+004 1.250000e+004 1.250000e+004 1.250000e+004 1.250000e+004 1.250000e+004 1.250000e+004 1.250000e+004 1.250000e+004 1.250000e+004
 1.250000e+004 1.250000e+004 1.250000e+004 1.250000e+004 1.250000e+004 1.250000e+004 1.250000e+004 1.250000e+004 1.250000e+004 1.250000e+004
 1.250000e+004 1.250000e+004 1.250000e+004 1.250000e+004 1.250000e+004 1.250000e+004 1.250000e+004 1.250000e+004 1.250000e+004 1.250000e+004
 1.250000e+004 1.250000e+004 1.250000e+004 1.250000e+004 1.250000e+004 1.250000e+004 1.250000e+004 1.250000e+004 1.250000e+004 1.250000e+004
 1.250000e+004 1.250000e+004 1.250000e+004 1.250000e+004 1.250000e+004 1.250000e+004 1.250000e+004 1.250000e+004 1.250000e+004 1.250000e+004
 1.250000e+004 1.250000e+004 1.250000e+004 1.250000e+004 1.250000e+004 1.250000e+004 1.250000e+004 1.250000e+004 1.250000e+004 1.250000e+004
 1.250000e+004 1.250000e+004 1.250000e+004 1.250000e+004 1.250000e+004 1.250000e+004 1.250000e+004 1.250000e+004 1.250000e+004 1.250000e+004
 1.250000e+004 1.250000e+004 1.250000e+004 1.250000e+004 1.250000e+004 1.250000e+004 1.250000e+004 1.250000e+004 1.250000e+004 1.250000e+004
 1.250000e+004 1.250000e+004 1.250000e+004 1.250000e+004 1.250000e+004 1.250000e+004 1.250000e+004 1.250000e+004 1.250000e+004 1.250000e+004
 1.250000e+004 1.250000e+004 1.250000e+004 1.250000e+004 1.250000e+004 1.250000e+004 1.250000e+004 1.250000e+004 1.250000e+004 1.250000e+004
 1.250000e+004 1.250000e+004 1.250000e+004 1.250000e+004 1.250000e+004 1.250000e+004 1.250000e+004 1.250000e+004 1.250000e+004 1.250000e+004
 1.250000e+004 1.250000e+004 1.250000e+004 1.250000e+004 1.250000e+004 1.250000e+004 1.250000e+004 1.250000e+004 1.250000e+004 1.250000e+004
 1.250000e+004 1.250000e+004 1.250000e+004 1.250000e+004 1.250000e+004 1.250000e+004 1.250000e+004 1.250000e+004 1.250000e+004 1.250000e+004
 1.250000e+004 1.250000e+004 1.250000e+004 1.250000e+004 1.250000e+004 1.250000e+004 1.250000e+004 1.250000e+004 1.250000e+004 1.250000e+004
 1.250000e+004 1.250000e+004 1.250000e+004 1.250000e+004 1.250000e+004 1.250000e+004 1.250000e+004 1.250000e+004 1.250000e+004 1.250000e+004
 1.250000e+004 1.250000e+004 1.250000e+004 1.250000e+004 1.250000e+004 1.250000e+004 1.250000e+004 1.250000e+004 1.250000e+004 1.250000e+004
 1.250000e+004 1.250000e+004 1.250000e+004 1.250000e+004 1.250000e+004 1.250000e+004 1.250000e+004 1.250000e+004 1.250000e+004 1.250000e+004
 1.250000e+004 1.250000e+004 1.250000e+004 1.250000e+004 1.250000e+004 1.250000e+004 1.250000e+004 1.250000e+004 1.250000e+004 1.250000e+004
 1.250000e+004 1.250000e+004 1.250000e+004 1.250000e+004 1.250000e+004 1.250000e+004 1.250000e+004 1.250000e+004 1.250000e+004 1.250000e+004
 1.250000e+004 1.250000e+004 1.250000e+004 1.250000e+004 1.250000e+004 1.250000e+004 1.250000e+004 1.250000e+004 1.250000e+004 1.250000e+004
 1.250000e+004 1.250000e+004 1.250000e+004 1.250000e+004 1.250000e+004 1.250000e+004 1.250000e+004 1.250000e+004 1.250000e+004 1.250000e+004
 1.250000e+004 1.250000e+004 1.250000e+004 1.250000e+004 1.250000e+004 1.250000e+004 1.250000e+004 1.250000e+004 1.250000e+004 1.250000e+004
 1.250000e+004 1.250000e+004 1.250000e+004 1.250000e+004 1.250000e+004 1.250000e+004 1.250000e+004 1.250000e+004 1.250000e+004 1.250000e+004
 1.250000e+004 1.250000e+004 1.250000e+004 1.250000e+004 1.250000e+004 1.250000e+004 1.250000e+004 1.250000e+004 1.250000e+004 1.250000e+004
 1.250000e+004 1.250000e+004 1.250000e+004 1.250000e+004 1.250000e+004 1.250000e+004 1.250000e+004 1.250000e+004 1.250000e+004 1.250000e+004
 1.250000e+004 1.250000e+004 1.250000e+004 1.250000e+004 1.250000e+004 1.250000e+004 1.250000e+004 1.250000e+004 1.250000e+004 1.250000e+004
 1.250000e+004 1.250000e+004 1.250000e+004 1.250000e+004 1.250000e+004 1.250000e+004 1.250000e+004 1.250000e+004 1.250000e+004 1.250000e+004
 1.250000e+004 1.250000e+004 1.250000e+004 1.250000e+004 1.250000e+004 1.250000e+004 1.250000e+004 1.250000e+004 1.250000e+004 1.250000e+004
 1.250000e+004 1.250000e+004 1.250000e+004 1.250000e+004 1.250000e+004 1.250000e+004 1.250000e+004 1.250000e+004 1.250000e+004 1.250000e+004
 1.250000e+004 1.250000e+004 1.250000e+004 1.250000e+004 1.250000e+004 1.250000e+004 1.250000e+004 1.250000e+004 1.250000e+004 1.250000e+004
 1.250000e+004 1.250000e+004 1.250000e+004 1.250000e+004 1.250000e+004 1.250000e+004 1.250000e+004 1.250000e+004 1.250000e+004 1.250000e+004
 1.250000e+004 1.250000e+004 1.250000e+004 1.250000e+004 1.250000e+004 1.250000e+004 1.250000e+004 1.250000e+004 1.250000e+004 1.250000e+004
 1.250000e+004 1.250000e+004 1.250000e+004 1.250000e+004 1.250000e+004 1.250000e+004 1.250000e+004 1.250000e+004 1.250000e+004 1.250000e+004
 1.250000e+004 1.250000e+004 1.250000e+004 1.250000e+004 1.250000e+004 1.250000e+004 1.250000e+004 1.250000e+004 1.250000e+004 1.250000e+004
 1.250000e+004 1.250000e+004 1.250000e+004 1.250000e+004 1.250000e+004 1.250000e+004 1.250000e+004 1.250000e+004 1.250000e+004 1.250000e+004
 1.250000e+004 1.250000e+004 1.250000e+004 1.250000e+004 1.250000e+004 1.250000e+004 1.250000e+004 1.250000e+004 1.250000e+004 1.250000e+004
 1.250000e+004 1.250000e+004 1.250000e+004 1.250000e+004 1.250000e+004 1.250000e+004 1.250000e+004 1.250000e+004 1.250000e+004 1.250000e+004
 1.250000e+004 1.250000e+004 1.250000e+004 1.250000e+004 1.250000e+004 1.250000e+004 1.250000e+004 1.250000e+004 1.250000e+004 1.250000e+004
 1.250000e+004 1.250000e+004 1.250000e+004 1.250000e+004 1.250000e+004 1.250000e+004 1.250000e+004 1.250000e+004 1.250000e+004 1.250000e+004
 1.250000e+004 1.250000e+004 1.250000e+004 1.250000e+004 1.250000e+004 1.250000e+004 1.250000e+004 1.250000e+004 1.250000e+004 1.250000e+004
 1.250000e+004 1.250000e+004 1.250000e+004 1.250000e+004 1.250000e+004 1.250000e+004 1.250000e+004 1.250000e+004 1.250000e+004 1.250000e+004
 1.250000e+004 1.250000e+004 1.250000e+004 1.250000e+004 1.250000e+004 1.250000e+004 1.250000e+004 1.250000e+004 1.250000e+004 1.250000e+004
 1.250000e+004 1.250000e+004 1.250000e+004 1.250000e+004 1.250000e+004 1.250000e+004 1.250000e+004 1.250000e+004 1.250000e+004 1.250000e+004
 1.250000e+004 1.250000e+004 1.250000e+004 1.250000e+004 1.250000e+004 1.250000e+004 1.250000e+004 1.250000e+004 1.250000e+004 1.250000e+004
 1.250000e+004 1.250000e+004 1.250000e+004 1.250000e+004 1.250000e+004 1.250000e+004 1.250000e+004 1.250000e+004 1.250000e+004 1.250000e+004
 1.250000e+004 1.250000e+004 1.250000e+004 1.250000e+004 1.250000e+004 1.250000e+004 1.250000e+004 1.250000e+004 1.250000e+004 1.250000e+004
 1.250000e+004 1.250000e+004 1.250000e+004 1.250000e+004 1.250000e+004 1.250000e+004 1.250000e+004 1.250000e+004 1.250000e+004 1.250000e+004
 1.250000e+004 1.250000e+004 1.250000e+004 1.250000e+004 1.250000e+004 1.250000e+004 1.250000e+004 1.250000e+004 1.250000e+004 1.250000e+004
 1.250000e+004 1.250000e+004 1.250000e+004 1.250000e+004 1.250000e+004 1.250000e+004 1.250000e+004 1.250000e+004 1.250000e+004 1.250000e+004
 1.250000e+004 1.250000e+004 1.250000e+004 1.250000e+004 1.250000e+004 1.250000e+004 1.250000e+004 1.250000e+004 1.250000e+004 1.250000e+004
 1.250000e+004 1.250000e+004 1.250000e+004 1.250000e+004 1.250000e+004 1.250000e+004 1.250000e+004 1.250000e+004 1.250000e+004 1.250000e+004
 1.250000e+004 1.250000e+004 1.250000e+004 1.250000e+004 1.250000e+004 1.250000e+004 1.250000e+004 1.250000e+004 1.250000e+004 1.250000e+004
 1.250000e+004 1.250000e+004 1.250000e+004 1.250000e+004 1.250000e+004 1.250000e+004 1.250000e+004 1.250000e+004 1.250000e+004 1.250000e+004
INTERNAL  1.000000e+000  (FREE)  -1  Kz Layer 1
 1.250000e-008 1.250000e-008 1.250000e-008 1.250000e-008 1.250000e-008 1.250000e-008 1.250000e-008 1.250000e-008 1.250000e-008 1.250000e-008
 1.250000e-008 1.250000e-008 1.250000e-008 1.250000e-008 1.250000e-008 1.250000e-008 1.250000e-008 1.250000e-008 1.250000e-008 1.250000e-008
 1.250000e-008 1.250000e-008 1.250000e-008 1.250000e-008 1.250000e-008 1.250000e-008 1.250000e-008 1.250000e-008 1.250000e-008 1.250000e-008
 1.250000e-008 1.250000e-008 1.250000e-008 1.250000e-008 1.250000e-008 1.250000e-008 1.250000e-008 1.250000e-008 1.250000e-008 1.250000e-008
 1.250000e-008 1.250000e-008 1.250000e-008 1.250000e-008 1.250000e-008 1.250000e-008 1.250000e-008 1.250000e-008 1.250000e-008 1.250000e-008
 1.250000e-008 1.250000e-008 1.250000e-008 1.250000e-008 1.250000e-008 1.250000e-008 1.250000e-008 1.250000e-008 1.250000e-008 1.250000e-008
 1.250000e-008 1.250000e-008 1.250000e-008 1.250000e-008 1.250000e-008 1.250000e-008 1.250000e-008 1.250000e-008 1.250000e-008 1.250000e-008
 1.250000e-008 1.250000e-008 1.250000e-008 1.250000e-008 1.250000e-008 1.250000e-008 1.250000e-008 1.250000e-008 1.250000e-008 1.250000e-008
 1.250000e-008 1.250000e-008 1.250000e-008 1.250000e-008 1.250000e-008 1.250000e-008 1.250000e-008 1.250000e-008 1.250000e-008 1.250000e-008