# MODFLOW-USGs Basic Package
# MODFLOW Data Set Created by Groundwater Vistas
#    
 UNSTRUCTURED FREE
CONSTANT  1              IBOUND Layer 1
CONSTANT  1              IBOUND Layer 2
CONSTANT  1              IBOUND Layer 3
CONSTANT  1              IBOUND Layer 4
INTERNAL  1  (FREE)  -1  IBOUND Layer 5
 1 1 1 1 1 1 1 1 1 1
 1 1 1 1 1 1 1 1 1 1
 1 1 1 1 1 1 1 1 1 1
 1 1 1 1 1 1 1 1 1 1
 1 1 1 1 1 1 1 1 1 1
 1 1 1 1 1 1 1 1 1 1
 1 1 1 1 1 1 1 1 1 1
 1 1 1 1 1 1 1 1 1 1
 1 1 1 1 1 1 1 1 1 1
 1 1 1 1 1 1 1 1 1 1
 1 1 1 1 1 1 1 1 1 1
 1 1 1 1 1 1 1 1 1 1
 1 1 1 1 1 1 1 1 1 1
 1 1 1 1 1 1 1 1 1 1
 1 1 1 1 1 1 1 1 1 1
 1 1 1 1 1 1 1 1 1 1
 1 1 1 1 1 1 1 1 1 1
 1 1 1 1 1 1 1 1 1 1
 1 1 1 1 1 1 1 1 1 1
 1 1 1 1 1 1 1 1 1 1
 1 1 1 1 1 1 1 1 1 1
 1 1 1 1 1 1 1 1 1 1
 1 1 1 1 1 1 1 1 1 1
 1 1 1 1 1 1 1 1 1 1
 1 1 1 1 1 1 1 1 1 1
 1 1 1 1 1 1 1 1 1 1
 1 1 1 1 1 1 1 1 1 1
 1 1 1 1 1 1 1 1 1 1
 1 1 1 1 1 1 1 1 1 1
 1 1 1 1 1 1 1 1 1 1
 1 1 1 1 1 1 1 1 1 1
 1 1 1 1 1 1 1 1 1 1
 1 1 1 1 1 1 1 1 1 1
 1 1 1 1 1 1 1 1 1 1
 1 1 1 1 1 1 1 1 1 1
 1 1 1 1 1 1 1 1 1 1
 1 1 1 1 1 1 1 1 1 1
 1 1 1 1 1 1 1 1 1 1
 1 1 1 1 1 1 1 1 1 1
 1 1 1 1 1 1 1 1 1 1
 1 1 1 1 1 1 1 1 1 1
 1 1 1 1 1 1 1 1 1 1
 1 1 1 1 1 1 1 1 1 1
 1 1 1 1 1 1 1 1 1 1
 1 1 1 1 1 1 1 1 1 1
 1 1 1 1 1 1 1 1 1 1
 1 1 1 1 1 1 1 1 1 1
 1 1 1 1 1 1 1 1 1 1
 1 1 1 1 1 1 1 1 1 1
 1 1 1 1 1 1 1 1 1 1
 1 1 1 1 1 1 1 1 1 1
 1 1 1 1 1 1 1 1 1 1
 1 1 1 1 1 1 1 1 1 1
 1 1 1 1 1 1 1 1 1 1
 1 1 1 1 1 1 1 1 1 1
 1 1 1 1 1 1 1 1 1 1
 1 1 1 1 1 1 1 1 1 1
 1 1 1 1 1 1 1 1 1 1
 1 1 1 1 1 1 1 1 1 1
 1 1 1 1 1 1 1 1 1 1
 1 1 1 1 1 1 1 1 1 1
 1 1 1 1 1 1 1 1 1 1
 1 1 1 1 1 1 1 1 1 1
 1 1 1 1 1 1 1 1 1 1
 1 1 1 1 1 1 1 1 1 1
 1 1 1 1 1 1 1 1 1 1
 1 1 1 1 1 1 1 1 1 1
 1 1 1 1 1 1 1 1 1 1
 1 1 1 1 1 1 1 1 1 1
 1 1 1 1 1 1 1 1 1 1
 1 1 1 1 1 1 1 1 1 1
 1 1 1 1 1 1 1 1 1 1
 1 1 1 1 1 1 1 1 1 1
 1 1 1 1 1 1 1 1 1 1
 1 1 1 1 1 1 1 1 1 1
 1 1 1 1 1 1 1 1 1 1
 1 1 1 1 1 1 1 1 1 1
 1 1 1 1 1 1 1 1 1 1
 1 1 1 1 1 1 1 1 1 1
 1 1 1 1 1 1 1 1 1 1
 1 1 1 1 1 1 1 1 1 1
 1 1 1 1 1 1 1 1 1 1
 1 1 1 1 1 1 1 1 1 1
 1 1 1 1 1 1 1 1 1 1
 1 1 1 1 1 1 1 1 1 1
 1 1 1 1 1 1 1 1 1 1
 1 1 1 1 1 1 1 1 1 1
 1 1 1 1 1 1 1 1 1 1
 1 1 1 1 1 1 1 1 1 1
 1 1 1 1 1 1 1 1 1 1
 1 1 1 1 1 1 1 1 1 1
 1 1 1 1 1 1 1 1 1 1
 1 1 1 1 1 1 1 1 1 1
 1 1 1 1 1 1 1 1 1 1
 1 1 1 1 1 1 1 1 1 1
 1 1 1 1 1 1 1 1 1 1
 1 1 1 1 1 1 1 1 1 1
 1 1 1 1 1 1 1 1 1 1
 1 1 1 1 1 1 1 1 1 1
 1 1 1 1 1 1 1 1 1 1
 1 1 1 1 1 1 1 1 1 1
 1 1 1 1 1 1 1 1 1 1
 1 1 1 1 1 1 1 1 1 1
 1 1 1 1 1 1 1 1 1 1
 1 1 1 1 1 1 1 1 1 1
 1 1 1 1 1 1 1 1 1 1
 1 1 1 1 1 1 1 1 1 1
 1 1 1 1 1 1 1 1 1 1
 1 1 1 1 1 1 1 1 1 1
 1 1 1 1 1 1 1 1 1 1
 1 1 1 1 1 1 1 1 1 1
 1 1 1 1 1 1 1 1 1 1
 1 1 1 1 1 1 1 1 1 1
 1 1 1 1 1 1 1 1 1 1
 1 1 1 1 1 1 1 1 1 1
 1 1 1 1 1 1 1 1 1 1
 1 1 1 1 1 1 1 1 1 1
 1 1 1 1 1 1 1 1 1 1
 1 1 1 1 1 1 1 1 1 1
 1 1 1 1 1 1 1 1 1 1
 1 1 1 1 1 1 1 1 1 1
 1 1 1 1 1 1 1 1 1 1
 1 1 1 1 1 1 1 1 1 1
 1 1 1 1 1 1 1 1 1 1
 1 1 1 1 1 1 1 1 1 1
 1 1 1 1 1 1 1 1 1 1
 1 1 1 1 1 1 1 1 1 1
 1 1 1 1 1 1 1 1 1 1
 1 1 1 1 1 1 1 1 1 1
 1 1 1 1 1 1 1 1 1 1
 1 1 1 1 1 1 1 1 1 1
 1 1 1 1 1 1 1 1 1 1
 1 1 1 1 1 1 1 1 1 1
 1 1 1 1 1 1 1 1 1 1
 1 1 1 1 1 1 1 1 1 1
 1 1 1 1 1 1 1 1 1 1
 1 1 1 1 1 1 1 1 1 1
 1 1 1 1 1 1 1 1 1 1
 1 1 1 1 1 1 1 1 1 1
 1 1 1 1 1 1 1 1 1 1
 1 1 1 1 1 1 1 1 1 1
 1 1 1 1 1 1 1 1 1 1
 1 1 1 1 1 1 1 1 1 1
 1 1 1 1 1 1 1 1 1 1
 1 1 1 1 1 1 1 1 1 1
 1 1 1 1 1 1 1 1 1 1
 1 1 1 1 1 1 1 1 1 1
 1 1 1 1 1 1 1 1 1 1
 1 1 1 1 1 1 1 1 1 1
 1 1 1 1 1 1 1 1 1 1
 1 1 1 1 1 1 1 1 1 1
 1 1 1 1 1 1 1 1 1 1
 1 1 1 1 1 1 1 1 1 1
 1 1 1 1 1 1 1 1 1 1
 1 1 1 1 1 1 1 1 1 1
 1 1 1 1 1 1 1 1 1 1
 1 1 1 1 1 1 1 1 1 1
 1 1 1 1 1 1 1 1 1 1
 1 1 1 1 1 1 1 1 1 1
 1 1 1 1 1 1 1 1 1 1
 1 1 1 1 1 1 1 1 1 1
 1 1 1 1 1 1 1 1 1 1
 1 1 1 1 1 1 1 1 1 1
 1 1 1 1 1 1 1 1 1 1
 1 1 1 1 1 1 1 1 1 1
 1 1 1 1 1 1 1 1 1 1
 1 1 1 1 1 1 1 1 1 1
 1 1 1 1 1 1 1 1 1 1
 1 1 1 1 1 1 1 1 1 1
 1 1 1 1 1 1 1 1 1 1
 1 1 1 1 1 1 1 1 1 1
 1 1 1 1 1 1 1 1 1 1
 1 1 1 1 1 1 1 1 1 1
 1 1 1 1 1 1 1 1 1 1
 1 1 1 1 1 1 1 1 1 1
 1 1 1 1 1 1 1 1 1 1
 1 1 1 1 1 1 1 1 1 1
 1 1 1 1 1 1 1 1 1 1
 1 1 1 1 1 1 1 1 1 1
 1 1 1 1 1 1 1 1 1 1
 1 1 1 1 1 1 1 1 1 1
 1 1 1 1 1 1 1 1 1 1
 1 1 1 1 1 1 1 1 1 1
 1 1 1 1 1 1 1 1 1 1
 1 1 1 1 1 1 1 1 1 1
 1 1 1 1 1 1 1 1 1 1
 1 1 1 1 1 1 1 1 1 1
 1 1 1 1 1 1 1 1 1 1
 1 1 1 1 1 1 1 1 1 1
 1 1 1 1 1 1 1 1 1 1
 1 1 1 1 1 1 1 1 1 1
 1 1 1 1 1 1 1 1 1 1
 1 1 1 1 1 1 1 1 1 1
 1 1 1 1 1 1 1 1 1 1
 1 1 1 1 1 1 1 1 1 1
 1 1 1 1 1 1 1 1 1 1
 1 1 1 1 1 1 1 1 1 1
 1 1 1 1 1 1 1 1 1 1
 1 1 1 1 1 1 1 1 1 1
 1 1 1 1 1 1 1 1 1 1
9.990000e+002
INTERNAL  1.000000e+000  (FREE)  -1  Starting Heads Layer 1
 1.896000e+001 2.000000e+001 2.000000e+001 2.000000e+001 2.000000e+001 2.000000e+001 2.000000e+001 2.000000e+001 2.000000e+001 2.000000e+001
 2.000000e+001 2.000000e+001 2.000000e+001 2.000000e+001 2.000000e+001 2.000000e+001 2.000000e+001 2.000000e+001 2.000000e+001 2.000000e+001
 2.000000e+001 2.000000e+001 2.000000e+001 2.000000e+001 2.000000e+001 2.000000e+001 2.000000e+001 2.000000e+001 2.000000e+001 2.000000e+001
 2.000000e+001 2.000000e+001 2.000000e+001 2.000000e+001 2.000000e+001 2.000000e+001 2.000000e+001 2.000000e+001 2.000000e+001 2.000000e+001
 2.000000e+001 2.000000e+001 2.000000e+001 2.000000e+001 2.000000e+001 2.000000e+001 2.000000e+001 2.000000e+001 2.000000e+001 2.000000e+001
 2.000000e+001 2.000000e+001 2.000000e+001 2.000000e+001 2.000000e+001 2.000000e+001 2.000000e+001 2.000000e+001 2.000000e+001 2.000000e+001
 2.000000e+001 2.000000e+001 2.000000e+001 2.000000e+001 2.000000e+001 2.000000e+001 2.000000e+001 2.000000e+001 2.000000e+001 2.000000e+001
 2.000000e+001 2.000000e+001 2.000000e+001 2.000000e+001 2.000000e+001 2.000000e+001 2.000000e+001 2.000000e+001 2.000000e+001 2.000000e+001
 2.000000e+001 2.000000e+001 2.000000e+001 2.000000e+001 2.000000e+001 2.000000e+001 2.000000e+001 2.000000e+001 2.000000e+001 2.000000e+001
 2.000000e+001 2.000000e+001 2.000000e+001 2.000000e+001 2.000000e+001 2.000000e+001 2.000000e+001 2.000000e+001 2.000000e+001 1.500000e+001
 1.896000e+001 2.000000e+001 2.000000e+001 2.000000e+001 2.000000e+001 2.000000e+001 2.000000e+001 2.000000e+001 2.000000e+001 2.000000e+001
 2.000000e+001 2.000000e+001 2.000000e+001 2.000000e+001 2.000000e+001 2.000000e+001 2.000000e+001 2.000000e+001 2.000000e+001 2.000000e+001
 2.000000e+001 2.000000e+001 2.000000e+001 2.000000e+001 2.000000e+001 2.000000e+001 2.000000e+001 2.000000e+001 2.000000e+001 2.000000e+001
 2.000000e+001 2.000000e+001 2.000000e+001 2.000000e+001 2.000000e+001 2.000000e+001 2.000000e+001 2.000000e+001 2.000000e+001 2.000000e+001
 2.000000e+001 2.000000e+001 2.000000e+001 2.000000e+001 2.000000e+001 2.000000e+001 2.000000e+001 2.000000e+001 2.000000e+001 2.000000e+001
 2.000000e+001 2.000000e+001 2.000000e+001 2.000000e+001 2.000000e+001 2.000000e+001 2.000000e+001 2.000000e+001 2.000000e+001 2.000000e+001
 2.000000e+001 2.000000e+001 2.000000e+001 2.000000e+001 2.000000e+001 2.000000e+001 2.000000e+001 2.000000e+001 2.000000e+001 2.000000e+001
 2.000000e+001 2.000000e+001 2.000000e+001 2.000000e+001 2.000000e+001 2.000000e+001 2.000000e+001 2.000000e+001 2.000000e+001 2.000000e+001
 2.000000e+001 2.000000e+001 2.000000e+001 2.000000e+001 2.000000e+001 2.000000e+001 2.000000e+001 2.000000e+001 2.000000e+001 2.000000e+001
 2.000000e+001 2.000000e+001 2.000000e+001 2.000000e+001 2.000000e+001 2.000000e+001 2.000000e+001 2.000000e+001 2.000000e+001 1.500000e+001
 1.896000e+001 2.000000e+001 2.000000e+001 2.000000e+001 2.000000e+001 2.000000e+001 2.000000e+001 2.000000e+001 2.000000e+001 2.000000e+001
 2.000000e+001 2.000000e+001 2.000000e+001 2.000000e+001 2.000000e+001 2.000000e+001 2.000000e+001 2.000000e+001 2.000000e+001 2.000000e+001
 2.000000e+001 2.000000e+001 2.000000e+001 2.000000e+001 2.000000e+001 2.000000e+001 2.000000e+001 2.000000e+001 2.000000e+001 2.000000e+001
 2.000000e+001 2.000000e+001 2.000000e+001 2.000000e+001 2.000000e+001 2.000000e+001 2.000000e+001 2.000000e+001 2.000000e+001 2.000000e+001
 2.000000e+001 2.000000e+001 2.000000e+001 2.000000e+001 2.000000e+001 2.000000e+001 2.000000e+001 2.000000e+001 2.000000e+001 2.000000e+001
 2.000000e+001 2.000000e+001 2.000000e+001 2.000000e+001 2.000000e+001 2.000000e+001 2.000000e+001 2.000000e+001 2.000000e+001 2.000000e+001
 2.000000e+001 2.000000e+001 2.000000e+001 2.000000e+001 2.000000e+001 2.000000e+001 2.000000e+001 2.000000e+001 2.000000e+001 2.000000e+001
 2.000000e+001 2.000000e+001 2.000000e+001 2.000000e+001 2.000000e+001 2.000000e+001 2.000000e+001 2.000000e+001 2.000000e+001 2.000000e+001
 2.000000e+001 2.000000e+001 2.000000e+001 2.000000e+001 2.000000e+001 2.000000e+001 2.000000e+001 2.000000e+001 2.000000e+001 2.000000e+001
 2.000000e+001 2.000000e+001 2.000000e+001 2.000000e+001 2.000000e+001 2.000000e+001 2.000000e+001 2.000000e+001 2.000000e+001 1.500000e+001
 1.896000e+001 2.000000e+001 2.000000e+001 2.000000e+001 2.000000e+001 2.000000e+001 2.000000e+001 2.000000e+001 2.000000e+001 2.000000e+001
 2.000000e+001 2.000000e+001 2.000000e+001 2.000000e+001 2.000000e+001 2.000000e+001 2.000000e+001 2.000000e+001 2.000000e+001 2.000000e+001
 2.000000e+001 2.000000e+001 2.000000e+001 2.000000e+001 2.000000e+001 2.000000e+001 2.000000e+001 2.000000e+001 2.000000e+001 2.000000e+001
 2.000000e+001 2.000000e+001 2.000000e+001 2.000000e+001 2.000000e+001 2.000000e+001 2.000000e+001 2.000000e+001 2.000000e+001 2.000000e+001
 2.000000e+001 2.000000e+001 2.000000e+001 2.000000e+001 2.000000e+001 2.000000e+001 2.000000e+001 2.000000e+001 2.000000e+001 2.000000e+001
 2.000000e+001 2.000000e+001 2.000000e+001 2.000000e+001 2.000000e+001 2.000000e+001 2.000000e+001 2.000000e+001 2.000000e+001 2.000000e+001
 2.000000e+001 2.000000e+001 2.000000e+001 2.000000e+001 2.000000e+001 2.000000e+001 2.000000e+001 2.000000e+001 2.000000e+001 2.000000e+001
 2.000000e+001 2.000000e+001 2.000000e+001 2.000000e+001 2.000000e+001 2.000000e+001 2.000000e+001 2.000000e+001 2.000000e+001 2.000000e+001
 2.000000e+001 2.000000e+001 2.000000e+001 2.000000e+001 2.000000e+001 2.000000e+001 2.000000e+001 2.000000e+001 2.000000e+001 2.000000e+001
 2.000000e+001 2.000000e+001 2.000000e+001 2.000000e+001 2.000000e+001 2.000000e+001 2.000000e+001 2.000000e+001 2.000000e+001 1.500000e+001
 1.896000e+001 2.000000e+001 2.000000e+001 2.000000e+001 2.000000e+001 2.000000e+001 2.000000e+001 2.000000e+001 2.000000e+001 2.000000e+001
 2.000000e+001 2.000000e+001 2.000000e+001 2.000000e+001 2.000000e+001 2.000000e+001 2.000000e+001 2.000000e+001 2.000000e+001 2.000000e+001
 2.000000e+001 2.000000e+001 2.000000e+001 2.000000e+001 2.000000e+001 2.000000e+001 2.000000e+001 2.000000e+001 2.000000e+001 2.000000e+001
 2.000000e+001 2.000000e+001 2.000000e+001 2.000000e+001 2.000000e+001 2.000000e+001 2.000000e+001 2.000000e+001 2.000000e+001 2.000000e+001
 2.000000e+001 2.000000e+001 2.000000e+001 2.000000e+001 2.000000e+001 2.000000e+001 2.000000e+001 2.000000e+001 2.000000e+001 2.000000e+001
 2.000000e+001 2.000000e+001 2.000000e+001 2.000000e+001 2.000000e+001 2.000000e+001 2.000000e+001 2.000000e+001 2.000000e+001 2.000000e+001
 2.000000e+001 2.000000e+001 2.000000e+001 2.000000e+001 2.000000e+001 2.000000e+001 2.000000e+001 2.000000e+001 2.000000e+001 2.000000e+001
 2.000000e+001 2.000000e+001 2.000000e+001 2.000000e+001 2.000000e+001 2.000000e+001 2.000000e+001 2.000000e+001 2.000000e+001 2.000000e+001
 2.000000e+001 2.000000e+001 2.000000e+001 2.000000e+001 2.000000e+001 2.000000e+001 2.000000e+001 2.000000e+001 2.000000e+001 2.000000e+001
 2.000000e+001 2.000000e+001 2.000000e+001 2.000000e+001 2.000000e+001 2.000000e+001 2.000000e+001 2.000000e+001 2.000000e+001 1.500000e+001
 1.896000e+001 2.000000e+001 2.000000e+001 2.000000e+001 2.000000e+001 2.000000e+001 2.000000e+001 2.000000e+001 2.000000e+001 2.000000e+001
 2.000000e+001 2.000000e+001 2.000000e+001 2.000000e+001 2.000000e+001 2.000000e+001 2.000000e+001 2.000000e+001 2.000000e+001 2.000000e+001
 2.000000e+001 2.000000e+001 2.000000e+001 2.000000e+001 2.000000e+001 2.000000e+001 2.000000e+001 2.000000e+001 2.000000e+001 2.000000e+001
 2.000000e+001 2.000000e+001 2.000000e+001 2.000000e+001 2.000000e+001 2.000000e+001 2.000000e+001 2.000000e+001 2.000000e+001 2.000000e+001
 2.000000e+001 2.000000e+001 2.000000e+001 2.000000e+001 2.000000e+001 2.000000e+001 2.000000e+001 2.000000e+001 2.000000e+001 2.000000e+001
 2.000000e+001 2.000000e+001 2.000000e+001 2.000000e+001 2.000000e+001 2.000000e+001 2.000000e+001 2.000000e+001 2.000000e+001 2.000000e+001
 2.000000e+001 2.000000e+001 2.000000e+001 2.000000e+001 2.000000e+001 2.000000e+001 2.000000e+001 2.000000e+001 2.000000e+001 2.000000e+001
 2.000000e+001 2.000000e+001 2.000000e+001 2.000000e+001 2.000000e+001 2.000000e+001 2.000000e+001 2.000000e+001 2.000000e+001 2.000000e+001
 2.000000e+001 2.000000e+001 2.000000e+001 2.000000e+001 2.000000e+001 2.000000e+001 2.000000e+001 2.000000e+001 2.000000e+001 2.000000e+001
 2.000000e+001 2.000000e+001 2.000000e+001 2.000000e+001 2.000000e+001 2.000000e+001 2.000000e+001 2.000000e+001 2.000000e+001 1.500000e+001
 1.896000e+001 2.000000e+001 2.000000e+001 2.000000e+001 2.000000e+001 2.000000e+001 2.000000e+001 2.000000e+001 2.000000e+001 2.000000e+001
 2.000000e+001 2.000000e+001 2.000000e+001 2.000000e+001 2.000000e+001 2.000000e+001 2.000000e+001 2.000000e+001 2.000000e+001 2.000000e+001
 2.000000e+001 2.000000e+001 2.000000e+001 2.000000e+001 2.000000e+001 2.000000e+001 2.000000e+001 2.000000e+001 2.000000e+001 2.000000e+001
 2.000000e+001 2.000000e+001 2.000000e+001 2.000000e+001 2.000000e+001 2.000000e+001 2.000000e+001 2.000000e+001 2.000000e+001 2.000000e+001
 2.000000e+001 2.000000e+001 2.000000e+001 2.000000e+001 2.000000e+001 2.000000e+001 2.000000e+001 2.000000e+001 2.000000e+001 2.000000e+001
 2.000000e+001 2.000000e+001 2.000000e+001 2.000000e+001 2.000000e+001 2.000000e+001 2.000000e+001 2.000000e+001 2.000000e+001 2.000000e+001
 2.000000e+001 2.000000e+001 2.000000e+001 2.000000e+001 2.000000e+001 2.000000e+001 2.000000e+001 2.000000e+001 2.000000e+001 2.000000e+001
 2.000000e+001 2.000000e+001 2.000000e+001 2.000000e+001 2.000000e+001 2.000000e+001 2.000000e+001 2.000000e+001 2.000000e+001 2.000000e+001
 2.000000e+001 2.000000e+001 2.000000e+001 2.000000e+001 2.000000e+001 2.000000e+001 2.000000e+001 2.000000e+001 2.000000e+001 2.000000e+001
 2.000000e+001 2.000000e+001 2.000000e+001 2.000000e+001 2.000000e+001 2.000000e+001 2.000000e+001 2.000000e+001 2.000000e+001 1.500000e+001
 1.896000e+001 2.000000e+001 2.000000e+001 2.000000e+001 2.000000e+001 2.000000e+001 2.000000e+001 2.000000e+001 2.000000e+001 2.000000e+001
 2.000000e+001 2.000000e+001 2.000000e+001 2.000000e+001 2.000000e+001 2.000000e+001 2.000000e+001 2.000000e+001 2.000000e+001 2.000000e+001
 2.000000e+001 2.000000e+001 2.000000e+001 2.000000e+001 2.000000e+001 2.000000e+001 2.000000e+001 2.000000e+001 2.000000e+001 2.000000e+001
 2.000000e+001 2.000000e+001 2.000000e+001 2.000000e+001 2.000000e+001 2.000000e+001 2.000000e+001 2.000000e+001 2.000000e+001 2.000000e+001
 2.000000e+001 2.000000e+001 2.000000e+001 2.000000e+001 2.000000e+001 2.000000e+001 2.000000e+001 2.000000e+001 2.000000e+001 2.000000e+001
 2.000000e+001 2.000000e+001 2.000000e+001 2.000000e+001 2.000000e+001 2.000000e+001 2.000000e+001 2.000000e+001 2.000000e+001 2.000000e+001
 2.000000e+001 2.000000e+001 2.000000e+001 2.000000e+001 2.000000e+001 2.000000e+001 2.000000e+001 2.000000e+001 2.000000e+001 2.000000e+001
 2.000000e+001 2.000000e+001 2.000000e+001 2.000000e+001 2.000000e+001 2.000000e+001 2.000000e+001 2.000000e+001 2.000000e+001 2.000000e+001
 2.000000e+001 2.000000e+001 2.000000e+001 2.000000e+001 2.000000e+001 2.000000e+001 2.000000e+001 2.000000e+001 2.000000e+001 2.000000e+001
 2.000000e+001 2.000000e+001 2.000000e+001 2.000000e+001 2.000000e+001 2.000000e+001 2.000000e+001 2.000000e+001 2.000000e+001 1.500000e+001
 1.896000e+001 2.000000e+001 2.000000e+001 2.000000e+001 2.000000e+001 2.000000e+001 2.000000e+001 2.000000e+001 2.000000e+001 2.000000e+001
 2.000000e+001 2.000000e+001 2.000000e+001 2.000000e+001 2.000000e+001 2.000000e+001 2.000000e+001 2.000000e+001 2.000000e+001 2.000000e+001
 2.000000e+001 2.000000e+001 2.000000e+001 2.000000e+001 2.000000e+001 2.000000e+001 2.000000e+001 2.000000e+001 2.000000e+001 2.000000e+001
 2.000000e+001 2.000000e+001 2.000000e+001 2.000000e+001 2.000000e+001 2.000000e+001 2.000000e+001 2.000000e+001 2.000000e+001 2.000000e+001
 2.000000e+001 2.000000e+001 2.000000e+001 2.000000e+001 2.000000e+001 2.000000e+001 2.000000e+001 2.000000e+001 2.000000e+001 2.000000e+001
 2.000000e+001 2.000000e+001 2.000000e+001 2.000000e+001 2.000000e+001 2.000000e+001 2.000000e+001 2.000000e+001 2.000000e+001 2.000000e+001
 2.000000e+001 2.000000e+001 2.000000e+001 2.000000e+001 2.000000e+001 2.000000e+001 2.000000e+001 2.000000e+001 2.000000e+001 2.000000e+001
 2.000000e+001 2.000000e+001 2.000000e+001 2.000000e+001 2.000000e+001 2.000000e+001 2.000000e+001 2.000000e+001 2.000000e+001 2.000000e+001
 2.000000e+001 2.000000e+001 2.000000e+001 2.000000e+001 2.000000e+001 2.000000e+001 2.000000e+001 2.000000e+001 2.000000e+001 2.000000e+001
 2.000000e+001 2.000000e+001 2.000000e+001 2.000000e+001 2.000000e+001 2.000000e+001 2.000000e+001 2.000000e+001 2.000000e+001 1.500000e+001
 1.896000e+001 2.000000e+001 2.000000e+001 2.000000e+001 2.000000e+001 2.000000e+001 2.000000e+001 2.000000e+001 2.000000e+001 2.000000e+001
 2.000000e+001 2.000000e+001 2.000000e+001 2.000000e+001 2.000000e+001 2.000000e+001 2.000000e+001 2.000000e+001 2.000000e+001 2.000000e+001
 2.000000e+001 2.000000e+001 2.000000e+001 2.000000e+001 2.000000e+001 2.000000e+001 2.000000e+001 2.000000e+001 2.000000e+001 2.000000e+001
 2.000000e+001 2.000000e+001 2.000000e+001 2.000000e+001 2.000000e+001 2.000000e+001 2.000000e+001 2.000000e+001 2.000000e+001 2.000000e+001
 2.000000e+001 2.000000e+001 2.000000e+001 2.000000e+001 2.000000e+001 2.000000e+001 2.000000e+001 2.000000e+001 2.000000e+001 2.000000e+001
 2.000000e+001 2.000000e+001 2.000000e+001 2.000000e+001 2.000000e+001 2.000000e+001 2.000000e+001 2.000000e+001 2.000000e+001 2.000000e+001
 2.000000e+001 2.000000e+001 2.000000e+001 2.000000e+001 2.000000e+001 2.000000e+001 2.000000e+001 2.000000e+001 2.000000e+001 2.000000e+001
 2.000000e+001 2.000000e+001 2.000000e+001 2.000000e+001 2.000000e+001 2.000000e+001 2.000000e+001 2.000000e+001 2.000000e+001 2.000000e+001
 2.000000e+001 2.000000e+001 2.000000e+001 2.000000e+001 2.000000e+001 2.000000e+001 2.000000e+001 2.000000e+001 2.000000e+001 2.000000e+001
 2.000000e+001 2.000000e+001 2.000000e+001 2.000000e+001 2.000000e+001 2.000000e+001 2.000000e+001 2.000000e+001 2.000000e+001 1.500000e+001
 1.896000e+001 2.000000e+001 2.000000e+001 2.000000e+001 2.000000e+001 2.000000e+001 2.000000e+001 2.000000e+001 2.000000e+001 2.000000e+001
 2.000000e+001 2.000000e+001 2.000000e+001 2.000000e+001 2.000000e+001 2.000000e+001 2.000000e+001 2.000000e+001 2.000000e+001 2.000000e+001
 2.000000e+001 2.000000e+001 2.000000e+001 2.000000e+001 2.000000e+001 2.000000e+001 2.000000e+001 2.000000e+001 2.000000e+001 2.000000e+001
 2.000000e+001 2.000000e+001 2.000000e+001 2.000000e+001 2.000000e+001 2.000000e+001 2.000000e+001 2.000000e+001 2.000000e+001 2.000000e+001
 2.000000e+001 2.000000e+001 2.000000e+001 2.000000e+001 2.000000e+001 2.000000e+001 2.000000e+001 2.000000e+001 2.000000e+001 2.000000e+001
 2.000000e+001 2.000000e+001 2.000000e+001 2.000000e+001 2.000000e+001 2.000000e+001 2.000000e+001 2.000000e+001 2.000000e+001 2.000000e+001
 2.000000e+001 2.000000e+001 2.000000e+001 2.000000e+001 2.000000e+001 2.000000e+001 2.000000e+001 2.000000e+001 2.000000e+001 2.000000e+001
 2.000000e+001 2.000000e+001 2.000000e+001 2.000000e+001 2.000000e+001 2.000000e+001 2.000000e+001 2.000000e+001 2.000000e+001 2.000000e+001
 2.000000e+001 2.000000e+001 2.000000e+001 2.000000e+001 2.000000e+001 2.000000e+001 2.000000e+001 2.000000e+001 2.000000e+001 2.000000e+001
 2.000000e+001 2.000000e+001 2.000000e+001 2.000000e+001 2.000000e+001 2.000000e+001 2.000000e+001 2.000000e+001 2.000000e+001 1.500000e+001
 1.896000e+001 2.000000e+001 2.000000e+001 2.000000e+001 2.000000e+001 2.000000e+001 2.000000e+001 2.000000e+001 2.000000e+001 2.000000e+001
 2.000000e+001 2.000000e+001 2.000000e+001 2.000000e+001 2.000000e+001 2.000000e+001 2.000000e+001 2.000000e+001 2.000000e+001 2.000000e+001
 2.000000e+001 2.000000e+001 2.000000e+001 2.000000e+001 2.000000e+001 2.000000e+001 2.000000e+001 2.000000e+001 2.000000e+001 2.000000e+001
 2.000000e+001 2.000000e+001 2.000000e+001 2.000000e+001 2.000000e+001 2.000000e+001 2.000000e+001 2.000000e+001 2.000000e+001 2.000000e+001
 2.000000e+001 2.000000e+001 2.000000e+001 2.000000e+001 2.000000e+001 2.000000e+001 2.000000e+001 2.000000e+001 2.000000e+001 2.000000e+001
 2.000000e+001 2.000000e+001 2.000000e+001 2.000000e+001 2.000000e+001 2.000000e+001 2.000000e+001 2.000000e+001 2.000000e+001 2.000000e+001
 2.000000e+001 2.000000e+001 2.000000e+001 2.000000e+001 2.000000e+001 2.000000e+001 2.000000e+001 2.000000e+001 2.000000e+001 2.000000e+001
 2.000000e+001 2.000000e+001 2.000000e+001 2.000000e+001 2.000000e+001 2.000000e+001 2.000000e+001 2.000000e+001 2.000000e+001 2.000000e+001
 2.000000e+001 2.000000e+001 2.000000e+001 2.000000e+001 2.000000e+001 2.000000e+001 2.000000e+001 2.000000e+001 2.000000e+001 2.000000e+001
 2.000000e+001 2.000000e+001 2.000000e+001 2.000000e+001 2.000000e+001 2.000000e+001 2.000000e+001 2.000000e+001 2.000000e+001 1.500000e+001
 1.896000e+001 2.000000e+001 2.000000e+001 2.000000e+001 2.000000e+001 2.000000e+001 2.000000e+001 2.000000e+001 2.000000e+001 2.000000e+001
 2.000000e+001 2.000000e+001 2.000000e+001 2.000000e+001 2.000000e+001 2.000000e+001 2.000000e+001 2.000000e+001 2.000000e+001 2.000000e+001
 2.000000e+001 2.000000e+001 2.000000e+001 2.000000e+001 2.000000e+001 2.000000e+001 2.000000e+001 2.000000e+001 2.000000e+001 2.000000e+001
 2.000000e+001 2.000000e+001 2.000000e+001 2.000000e+001 2.000000e+001 2.000000e+001 2.000000e+001 2.000000e+001 2.000000e+001 2.000000e+001
 2.000000e+001 2.000000e+001 2.000000e+001 2.000000e+001 2.000000e+001 2.000000e+001 2.000000e+001 2.000000e+001 2.000000e+001 2.000000e+001
 2.000000e+001 2.000000e+001 2.000000e+001 2.000000e+001 2.000000e+001 2.000000e+001 2.000000e+001 2.000000e+001 2.000000e+001 2.000000e+001
 2.000000e+001 2.000000e+001 2.000000e+001 2.000000e+001 2.000000e+001 2.000000e+001 2.000000e+001 2.000000e+001 2.000000e+001 2.000000e+001
 2.000000e+001 2.000000e+001 2.000000e+001 2.000000e+001 2.000000e+001 2.000000e+001 2.000000e+001 2.000000e+001 2.000000e+001 2.000000e+001
 2.000000e+001 2.000000e+001 2.000000e+001 2.000000e+001 2.000000e+001 2.000000e+001 2.000000e+001 2.000000e+001 2.000000e+001 2.000000e+001
 2.000000e+001 2.000000e+001 2.000000e+001 2.000000e+001 2.000000e+001 2.000000e+001 2.000000e+001 2.000000e+001 2.000000e+001 1.500000e+001
 1.896000e+001 2.000000e+001 2.000000e+001 2.000000e+001 2.000000e+001 2.000000e+001 2.000000e+001 2.000000e+001 2.000000e+001 2.000000e+001
 2.000000e+001 2.000000e+001 2.000000e+001 2.000000e+001 2.000000e+001 2.000000e+001 2.000000e+001 2.000000e+001 2.000000e+001 2.000000e+001
 2.000000e+001 2.000000e+001 2.000000e+001 2.000000e+001 2.000000e+001 2.000000e+001 2.000000e+001 2.000000e+001 2.000000e+001 2.000000e+001
 2.000000e+001 2.000000e+001 2.000000e+001 2.000000e+001 2.000000e+001 2.000000e+001 2.000000e+001 2.000000e+001 2.000000e+001 2.000000e+001
 2.000000e+001 2.000000e+001 2.000000e+001 2.000000e+001 2.000000e+001 2.000000e+001 2.000000e+001 2.000000e+001 2.000000e+001 2.000000e+001
 2.000000e+001 2.000000e+001 2.000000e+001 2.000000e+001 2.000000e+001 2.000000e+001 2.000000e+001 2.000000e+001 2.000000e+001 2.000000e+001
 2.000000e+001 2.000000e+001 2.000000e+001 2.000000e+001 2.000000e+001 2.000000e+001 2.000000e+001 2.000000e+001 2.000000e+001 2.000000e+001
 2.000000e+001 2.000000e+001 2.000000e+001 2.000000e+001 2.000000e+001 2.000000e+001 2.000000e+001 2.000000e+001 2.000000e+001 2.000000e+001
 2.000000e+001 2.000000e+001 2.000000e+001 2.000000e+001 2.000000e+001 2.000000e+001 2.000000e+001 2.000000e+001 2.000000e+001 2.000000e+001
 2.000000e+001 2.000000e+001 2.000000e+001 2.000000e+001 2.000000e+001 2.000000e+001 2.000000e+001 2.000000e+001 2.000000e+001 1.500000e+001
 1.896000e+001 2.000000e+001 2.000000e+001 2.000000e+001 2.000000e+001 2.000000e+001 2.000000e+001 2.000000e+001 2.000000e+001 2.000000e+001
 2.000000e+001 2.000000e+001 2.000000e+001 2.000000e+001 2.000000e+001 2.000000e+001 2.000000e+001 2.000000e+001 2.000000e+001 2.000000e+001
 2.000000e+001 2.000000e+001 2.000000e+001 2.000000e+001 2.000000e+001 2.000000e+001 2.000000e+001 2.000000e+001 2.000000e+001 2.000000e+001
 2.000000e+001 2.000000e+001 2.000000e+001 2.000000e+001 2.000000e+001 2.000000e+001 2.000000e+001 2.000000e+001 2.000000e+001 2.000000e+001
 2.000000e+001 2.000000e+001 2.000000e+001 2.000000e+001 2.000000e+001 2.000000e+001 2.000000e+001 2.000000e+001 2.000000e+001 2.000000e+001
 2.000000e+001 2.000000e+001 2.000000e+001 2.000000e+001 2.000000e+001 2.000000e+001 2.000000e+001 2.000000e+001 2.000000e+001 2.000000e+001
 2.000000e+001 2.000000e+001 2.000000e+001 2.000000e+001 2.000000e+001 2.000000e+001 2.000000e+001 2.000000e+001 2.000000e+001 2.000000e+001
 2.000000e+001 2.000000e+001 2.000000e+001 2.000000e+001 2.000000e+001 2.000000e+001 2.000000e+001 2.000000e+001 2.000000e+001 2.000000e+001
 2.000000e+001 2.000000e+001 2.000000e+001 2.000000e+001 2.000000e+001 2.000000e+001 2.000000e+001 2.000000e+001 2.000000e+001 2.000000e+001
 2.000000e+001 2.000000e+001 2.000000e+001 2.000000e+001 2.000000e+001 2.000000e+001 2.000000e+001 2.000000e+001 2.000000e+001 1.500000e+001
 1.896000e+001 2.000000e+001 2.000000e+001 2.000000e+001 2.000000e+001 2.000000e+001 2.000000e+001 2.000000e+001 2.000000e+001 2.000000e+001
 2.000000e+001 2.000000e+001 2.000000e+001 2.000000e+001 2.000000e+001 2.000000e+001 2.000000e+001 2.000000e+001 2.000000e+001 2.000000e+001
 2.000000e+001 2.000000e+001 2.000000e+001 2.000000e+001 2.000000e+001 2.000000e+001 2.000000e+001 2.000000e+001 2.000000e+001 2.000000e+001
 2.000000e+001 2.000000e+001 2.000000e+001 2.000000e+001 2.000000e+001 2.000000e+001 2.000000e+001 2.000000e+001 2.000000e+001 2.000000e+001
 2.000000e+001 2.000000e+001 2.000000e+001 2.000000e+001 2.000000e+001 2.000000e+001 2.000000e+001 2.000000e+001 2.000000e+001 2.000000e+001
 2.000000e+001 2.000000e+001 2.000000e+001 2.000000e+001 2.000000e+001 2.000000e+001 2.000000e+001 2.000000e+001 2.000000e+001 2.000000e+001
 2.000000e+001 2.000000e+001 2.000000e+001 2.000000e+001 2.000000e+001 2.000000e+001 2.000000e+001 2.000000e+001 2.000000e+001 2.000000e+001
 2.000000e+001 2.000000e+001 2.000000e+001 2.000000e+001 2.000000e+001 2.000000e+001 2.000000e+001 2.000000e+001 2.000000e+001 2.000000e+001
 2.000000e+001 2.000000e+001 2.000000e+001 2.000000e+001 2.000000e+001 2.000000e+001 2.000000e+001 2.000000e+001 2.000000e+001 2.000000e+001
 2.000000e+001 2.000000e+001 2.000000e+001 2.000000e+001 2.000000e+001 2.000000e+001 2.000000e+001 2.000000e+001 2.000000e+001 1.500000e+001
 1.896000e+001 2.000000e+001 2.000000e+001 2.000000e+001 2.000000e+001 2.000000e+001 2.000000e+001 2.000000e+001 2.000000e+001 2.000000e+001
 2.000000e+001 2.000000e+001 2.000000e+001 2.000000e+001 2.000000e+001 2.000000e+001 2.000000e+001 2.000000e+001 2.000000e+001 2.000000e+001
 2.000000e+001 2.000000e+001 2.000000e+001 2.000000e+001 2.000000e+001 2.000000e+001 2.000000e+001 2.000000e+001 2.000000e+001 2.000000e+001
 2.000000e+001 2.000000e+001 2.000000e+001 2.000000e+001 2.000000e+001 2.000000e+001 2.000000e+001 2.000000e+001 2.000000e+001 2.000000e+001
 2.000000e+001 2.000000e+001 2.000000e+001 2.000000e+001 2.000000e+001 2.000000e+001 2.000000e+001 2.000000e+001 2.000000e+001 2.000000e+001
 2.000000e+001 2.000000e+001 2.000000e+001 2.000000e+001 2.000000e+001 2.000000e+001 2.000000e+001 2.000000e+001 2.000000e+001 2.000000e+001
 2.000000e+001 2.000000e+001 2.000000e+001 2.000000e+001 2.000000e+001 2.000000e+001 2.000000e+001 2.000000e+001 2.000000e+001 2.000000e+001
 2.000000e+001 2.000000e+001 2.000000e+001 2.000000e+001 2.000000e+001 2.000000e+001 2.000000e+001 2.000000e+001 2.000000e+001 2.000000e+001
 2.000000e+001 2.000000e+001 2.000000e+001 2.000000e+001 2.000000e+001 2.000000e+001 2.000000e+001 2.000000e+001 2.000000e+001 2.000000e+001
 2.000000e+001 2.000000e+001 2.000000e+001 2.000000e+001 2.000000e+001 2.000000e+001 2.000000e+001 2.000000e+001 2.000000e+001 1.500000e+001
 1.896000e+001 2.000000e+001 2.000000e+001 2.000000e+001 2.000000e+001 2.000000e+001 2.000000e+001 2.000000e+001 2.000000e+001 2.000000e+001
 2.000000e+001 2.000000e+001 2.000000e+001 2.000000e+001 2.000000e+001 2.000000e+001 2.000000e+001 2.000000e+001 2.000000e+001 2.000000e+001
 2.000000e+001 2.000000e+001 2.000000e+001 2.000000e+001 2.000000e+001 2.000000e+001 2.000000e+001 2.000000e+001 2.000000e+001 2.000000e+001
 2.000000e+001 2.000000e+001 2.000000e+001 2.000000e+001 2.000000e+001 2.000000e+001 2.000000e+001 2.000000e+001 2.000000e+001 2.000000e+001
 2.000000e+001 2.000000e+001 2.000000e+001 2.000000e+001 2.000000e+001 2.000000e+001 2.000000e+001 2.000000e+001 2.000000e+001 2.000000e+001
 2.000000e+001 2.000000e+001 2.000000e+001 2.000000e+001 2.000000e+001 2.000000e+001 2.000000e+001 2.000000e+001 2.000000e+001 2.000000e+001
 2.000000e+001 2.000000e+001 2.000000e+001 2.000000e+001 2.000000e+001 2.000000e+001 2.000000e+001 2.000000e+001 2.000000e+001 2.000000e+001