# NOT generated by Flopy
BEGIN options
END options

BEGIN griddata
  iconvert  NETCDF
  ss  NETCDF
  sy  NETCDF
END griddata

BEGIN period  1
  STEADY-STATE
END period  1

BEGIN period  2
  TRANSIENT
END period  2
