# File generated by Flopy version 3.10.0.dev1 on 01/06/2025 at 14:17:11.
BEGIN options
END options

BEGIN dimensions
  MAXBOUND  4
END dimensions

BEGIN period  1
  1 10 4 0.00000000E+00
  1 10 5 0.00000000E+00
  1 10 6 0.00000000E+00
  1 10 7 0.00000000E+00
END period  1

