# NOT generated by Flopy
BEGIN options
END options

BEGIN dimensions
  NLAY  3
  NROW  10
  NCOL  10
END dimensions

BEGIN griddata
  delr  NETCDF
  delc  NETCDF
  top  NETCDF
  botm  NETCDF
END griddata

