# File generated by Flopy version 3.10.0.dev1 on 01/06/2025 at 14:17:11.
BEGIN options
  PRINT_INPUT
  PRINT_FLOWS
END options

BEGIN dimensions
  MAXBOUND  4
END dimensions

BEGIN period  2
  3 3 6 -1.40000000E+04
  3 3 7 -8.00000000E+03
  3 4 6 -5.00000000E+03
  3 4 7 -3.00000000E+03
END period  2

