 'MT3D3.00.99'          12           0           0           0           0
           0         240           1           1
           1           1          21          15           8
 'THKSAT          '
  -111.0000      -111.0000      -111.0000      -111.0000      -111.0000    
  -111.0000      -111.0000      -111.0000      -111.0000      -111.0000    
  -111.0000      -111.0000      -111.0000      -111.0000      -111.0000    
  -111.0000      -111.0000      -111.0000      -111.0000      -111.0000    
  -111.0000      -111.0000      -111.0000      -111.0000      -111.0000    
  -111.0000      -111.0000      -111.0000      -111.0000      -111.0000    
  -111.0000      -111.0000      -111.0000      -111.0000      -111.0000    
  -111.0000      -111.0000      -111.0000      -111.0000      -111.0000    
  -111.0000      -111.0000      -111.0000      -111.0000      -111.0000    
  -111.0000      -111.0000      -111.0000      -111.0000      -111.0000    
  -111.0000      -111.0000      -111.0000      -111.0000      -111.0000    
  -111.0000      -111.0000      -111.0000      -111.0000      -111.0000    
  -111.0000      -111.0000      -111.0000      -111.0000      -111.0000    
  -111.0000      -111.0000      -111.0000      -111.0000      -111.0000    
  -111.0000      -111.0000      -111.0000      -111.0000      -111.0000    
  -111.0000      -111.0000      -111.0000      -111.0000      -111.0000    
  -111.0000      -111.0000      -111.0000      -111.0000      -111.0000    
  -111.0000      -111.0000      -111.0000      -111.0000      -111.0000    
  -111.0000      -111.0000      -111.0000      -111.0000      -111.0000    
  -111.0000      -111.0000      -111.0000      -111.0000      -111.0000    
  -111.0000      -111.0000      -111.0000      -111.0000      -111.0000    
  -111.0000      -111.0000      -111.0000      -111.0000      -111.0000    
  -111.0000      -111.0000      -111.0000      -111.0000      -111.0000    
  -111.0000      -111.0000      -111.0000      -111.0000      -111.0000    
  -111.0000      -111.0000      -111.0000      -111.0000      -111.0000    
  -111.0000      -111.0000      -111.0000      -111.0000      -111.0000    
  -111.0000      -111.0000      -111.0000      -111.0000      -111.0000    
  -111.0000      -111.0000      -111.0000      -111.0000      -111.0000    
  -111.0000      -111.0000      -111.0000      -111.0000      -111.0000    
  -111.0000      -111.0000      -111.0000      -111.0000      -111.0000    
  -111.0000      -111.0000      -111.0000      -111.0000      -111.0000    
  -111.0000      -111.0000      -111.0000      -111.0000      -111.0000    
  -111.0000      -111.0000      -111.0000      -111.0000      -111.0000    
  -111.0000      -111.0000      -111.0000      -111.0000      -111.0000    
  -111.0000      -111.0000      -111.0000      -111.0000      -111.0000    
  -111.0000      -111.0000      -111.0000      -111.0000      -111.0000    
  -111.0000      -111.0000      -111.0000      -111.0000      -111.0000    
  -111.0000      -111.0000      -111.0000      -111.0000      -111.0000    
  -111.0000      -111.0000      -111.0000      -111.0000      -111.0000    
  -111.0000      -111.0000      -111.0000      -111.0000      -111.0000    
  -111.0000      -111.0000      -111.0000      -111.0000      -111.0000    
  -111.0000      -111.0000      -111.0000      -111.0000      -111.0000    
  -111.0000      -111.0000      -111.0000      -111.0000      -111.0000    
  -111.0000      -111.0000      -111.0000      -111.0000      -111.0000    
  -111.0000      -111.0000      -111.0000      -111.0000      -111.0000    
  -111.0000      -111.0000      -111.0000      -111.0000      -111.0000    
  -111.0000      -111.0000      -111.0000      -111.0000      -111.0000    
  -111.0000      -111.0000      -111.0000      -111.0000      -111.0000    
  -111.0000      -111.0000      -111.0000      -111.0000      -111.0000    
  -111.0000      -111.0000      -111.0000      -111.0000      -111.0000    
  -111.0000      -111.0000      -111.0000      -111.0000      -111.0000    
  -111.0000      -111.0000      -111.0000      -111.0000      -111.0000    
  -111.0000      -111.0000      -111.0000      -111.0000      -111.0000    
  -111.0000      -111.0000      -111.0000      -111.0000      -111.0000    
  -111.0000      -111.0000      -111.0000      -111.0000      -111.0000    
  -111.0000      -111.0000      -111.0000      -111.0000      -111.0000    
  -111.0000      -111.0000      -111.0000      -111.0000      -111.0000    
  -111.0000      -111.0000      -111.0000      -111.0000      -111.0000    
  -111.0000      -111.0000      -111.0000      -111.0000      -111.0000    
  -111.0000      -111.0000      -111.0000      -111.0000      -111.0000    
  -111.0000      -111.0000      -111.0000      -111.0000      -111.0000    
  -111.0000      -111.0000      -111.0000      -111.0000      -111.0000    
  -111.0000      -111.0000      -111.0000      -111.0000      -111.0000    
  -111.0000      -111.0000      -111.0000      -111.0000      -111.0000    
  -111.0000      -111.0000      -111.0000      -111.0000      -111.0000    
  -111.0000      -111.0000      -111.0000      -111.0000      -111.0000    
  -111.0000      -111.0000      -111.0000      -111.0000      -111.0000    
  -111.0000      -111.0000      -111.0000      -111.0000      -111.0000    
  -111.0000      -111.0000      -111.0000      -111.0000      -111.0000    
  -111.0000      -111.0000      -111.0000      -111.0000      -111.0000    
  -111.0000      -111.0000      -111.0000      -111.0000      -111.0000    
  -111.0000      -111.0000      -111.0000      -111.0000      -111.0000    
  -111.0000      -111.0000      -111.0000      -111.0000      -111.0000    
  -111.0000      -111.0000      -111.0000      -111.0000      -111.0000    
  -111.0000      -111.0000      -111.0000      -111.0000      -111.0000    
  -111.0000      -111.0000      -111.0000      -111.0000      -111.0000    
  -111.0000      -111.0000      -111.0000      -111.0000      -111.0000    
  -111.0000      -111.0000      -111.0000      -111.0000      -111.0000    
  -111.0000      -111.0000      -111.0000      -111.0000      -111.0000    
  -111.0000      -111.0000      -111.0000      -111.0000      -111.0000    
  -111.0000      -111.0000      -111.0000      -111.0000      -111.0000    
  -111.0000      -111.0000      -111.0000      -111.0000      -111.0000    
  -111.0000      -111.0000      -111.0000      -111.0000      -111.0000    
  -111.0000      -111.0000      -111.0000      -111.0000      -111.0000    
  -111.0000      -111.0000      -111.0000      -111.0000      -111.0000    
  -111.0000      -111.0000      -111.0000      -111.0000      -111.0000    
  -111.0000      -111.0000      -111.0000      -111.0000      -111.0000    
  -111.0000      -111.0000      -111.0000      -111.0000      -111.0000    
  -111.0000      -111.0000      -111.0000      -111.0000      -111.0000    
  -111.0000      -111.0000      -111.0000      -111.0000      -111.0000    
  -111.0000      -111.0000      -111.0000      -111.0000      -111.0000    
  -111.0000      -111.0000      -111.0000      -111.0000      -111.0000    
  -111.0000      -111.0000      -111.0000      -111.0000      -111.0000    
  -111.0000      -111.0000      -111.0000      -111.0000      -111.0000    
  -111.0000      -111.0000      -111.0000      -111.0000      -111.0000    
  -111.0000      -111.0000      -111.0000      -111.0000      -111.0000    
  -111.0000      -111.0000      -111.0000      -111.0000      -111.0000    
  -111.0000      -111.0000      -111.0000      -111.0000      -111.0000    
  -111.0000      -111.0000      -111.0000      -111.0000      -111.0000    
  -111.0000      -111.0000      -111.0000      -111.0000      -111.0000    
  -111.0000      -111.0000      -111.0000      -111.0000      -111.0000    
  -111.0000      -111.0000      -111.0000      -111.0000      -111.0000    
  -111.0000      -111.0000      -111.0000      -111.0000      -111.0000    
  -111.0000      -111.0000      -111.0000      -111.0000      -111.0000    
  -111.0000      -111.0000      -111.0000      -111.0000      -111.0000    
  -111.0000      -111.0000      -111.0000      -111.0000      -111.0000    
  -111.0000      -111.0000      -111.0000      -111.0000      -111.0000    
  -111.0000      -111.0000      -111.0000      -111.0000      -111.0000    
  -111.0000      -111.0000      -111.0000      -111.0000      -111.0000    
  -111.0000      -111.0000      -111.0000      -111.0000      -111.0000    
  -111.0000      -111.0000      -111.0000      -111.0000      -111.0000    
  -111.0000      -111.0000      -111.0000      -111.0000      -111.0000    
  -111.0000      -111.0000      -111.0000      -111.0000      -111.0000    
  -111.0000      -111.0000      -111.0000      -111.0000      -111.0000    
  -111.0000      -111.0000      -111.0000      -111.0000      -111.0000    
  -111.0000      -111.0000      -111.0000      -111.0000      -111.0000    
  -111.0000      -111.0000      -111.0000      -111.0000      -111.0000    
  -111.0000      -111.0000      -111.0000      -111.0000      -111.0000    
  -111.0000      -111.0000      -111.0000      -111.0000      -111.0000    
  -111.0000      -111.0000      -111.0000      -111.0000      -111.0000    
  -111.0000      -111.0000      -111.0000      -111.0000      -111.0000    
  -111.0000      -111.0000      -111.0000      -111.0000      -111.0000    
  -111.0000      -111.0000      -111.0000      -111.0000      -111.0000    
  -111.0000      -111.0000      -111.0000      -111.0000      -111.0000    
  -111.0000      -111.0000      -111.0000      -111.0000      -111.0000    
  -111.0000      -111.0000      -111.0000      -111.0000      -111.0000    
  -111.0000      -111.0000      -111.0000      -111.0000      -111.0000    
  -111.0000      -111.0000      -111.0000      -111.0000      -111.0000    
  -111.0000      -111.0000      -111.0000      -111.0000      -111.0000    
  -111.0000      -111.0000      -111.0000      -111.0000      -111.0000    
  -111.0000      -111.0000      -111.0000      -111.0000      -111.0000    
  -111.0000      -111.0000      -111.0000      -111.0000      -111.0000    
  -111.0000      -111.0000      -111.0000      -111.0000      -111.0000    
  -111.0000      -111.0000      -111.0000      -111.0000      -111.0000    
  -111.0000      -111.0000      -111.0000      -111.0000      -111.0000    
  -111.0000      -111.0000      -111.0000      -111.0000      -111.0000    
  -111.0000      -111.0000      -111.0000      -111.0000      -111.0000    
  -111.0000      -111.0000      -111.0000      -111.0000      -111.0000    
  -111.0000      -111.0000      -111.0000      -111.0000      -111.0000    
  -111.0000      -111.0000      -111.0000      -111.0000      -111.0000    
  -111.0000      -111.0000      -111.0000      -111.0000      -111.0000    
  -111.0000      -111.0000      -111.0000      -111.0000      -111.0000    
  -111.0000      -111.0000      -111.0000      -111.0000      -111.0000    
  -111.0000      -111.0000      -111.0000      -111.0000      -111.0000    
  -111.0000      -111.0000      -111.0000      -111.0000      -111.0000    
  -111.0000      -111.0000      -111.0000      -111.0000      -111.0000    
  -111.0000      -111.0000      -111.0000      -111.0000      -111.0000    
  -111.0000      -111.0000      -111.0000      -111.0000      -111.0000    
  -111.0000      -111.0000      -111.0000      -111.0000      -111.0000    
  -111.0000      -111.0000      -111.0000      -111.0000      -111.0000    
  -111.0000      -111.0000      -111.0000      -111.0000      -111.0000    
  -111.0000      -111.0000      -111.0000      -111.0000      -111.0000    
  -111.0000      -111.0000      -111.0000      -111.0000      -111.0000    
  -111.0000      -111.0000      -111.0000      -111.0000      -111.0000    
  -111.0000      -111.0000      -111.0000      -111.0000      -111.0000    
  -111.0000      -111.0000      -111.0000      -111.0000      -111.0000    
  -111.0000      -111.0000      -111.0000      -111.0000      -111.0000    
  -111.0000      -111.0000      -111.0000      -111.0000      -111.0000    
  -111.0000      -111.0000      -111.0000      -111.0000      -111.0000    
  -111.0000      -111.0000      -111.0000      -111.0000      -111.0000    
  -111.0000      -111.0000      -111.0000      -111.0000      -111.0000    
  -111.0000      -111.0000      -111.0000      -111.0000      -111.0000    
  -111.0000      -111.0000      -111.0000      -111.0000      -111.0000    
  -111.0000      -111.0000      -111.0000      -111.0000      -111.0000    
  -111.0000      -111.0000      -111.0000      -111.0000      -111.0000    
  -111.0000      -111.0000      -111.0000      -111.0000      -111.0000    
  -111.0000      -111.0000      -111.0000      -111.0000      -111.0000    
  -111.0000      -111.0000      -111.0000      -111.0000      -111.0000    
  -111.0000      -111.0000      -111.0000      -111.0000      -111.0000    
  -111.0000      -111.0000      -111.0000      -111.0000      -111.0000    
  -111.0000      -111.0000      -111.0000      -111.0000      -111.0000    
  -111.0000      -111.0000      -111.0000      -111.0000      -111.0000    
  -111.0000      -111.0000      -111.0000      -111.0000      -111.0000    
  -111.0000      -111.0000      -111.0000      -111.0000      -111.0000    
  -111.0000      -111.0000      -111.0000      -111.0000      -111.0000    
  -111.0000      -111.0000      -111.0000      -111.0000      -111.0000    
  -111.0000      -111.0000      -111.0000      -111.0000      -111.0000    
  -111.0000      -111.0000      -111.0000      -111.0000      -111.0000    
  -111.0000      -111.0000      -111.0000      -111.0000      -111.0000    
  -111.0000      -111.0000      -111.0000      -111.0000      -111.0000    
  -111.0000      -111.0000      -111.0000      -111.0000      -111.0000    
  -111.0000      -111.0000      -111.0000      -111.0000      -111.0000    
  -111.0000      -111.0000      -111.0000      -111.0000      -111.0000    
  -111.0000      -111.0000      -111.0000      -111.0000      -111.0000    
  -111.0000      -111.0000      -111.0000      -111.0000      -111.0000    
  -111.0000      -111.0000      -111.0000      -111.0000      -111.0000    
  -111.0000      -111.0000      -111.0000      -111.0000      -111.0000    
  -111.0000      -111.0000      -111.0000      -111.0000      -111.0000    
  -111.0000      -111.0000      -111.0000      -111.0000      -111.0000    
  -111.0000      -111.0000      -111.0000      -111.0000      -111.0000    
  -111.0000      -111.0000      -111.0000      -111.0000      -111.0000    
  -111.0000      -111.0000      -111.0000      -111.0000      -111.0000    
  -111.0000      -111.0000      -111.0000      -111.0000      -111.0000    
  -111.0000      -111.0000      -111.0000      -111.0000      -111.0000    
  -111.0000      -111.0000      -111.0000      -111.0000      -111.0000    
  -111.0000      -111.0000      -111.0000      -111.0000      -111.0000    
  -111.0000      -111.0000      -111.0000      -111.0000      -111.0000    
  -111.0000      -111.0000      -111.0000      -111.0000      -111.0000    
  -111.0000      -111.0000      -111.0000      -111.0000      -111.0000    
  -111.0000      -111.0000      -111.0000      -111.0000      -111.0000    
  -111.0000      -111.0000      -111.0000      -111.0000      -111.0000    
  -111.0000      -111.0000      -111.0000      -111.0000      -111.0000    
  -111.0000      -111.0000      -111.0000      -111.0000      -111.0000    
  -111.0000      -111.0000      -111.0000      -111.0000      -111.0000    
  -111.0000      -111.0000      -111.0000      -111.0000      -111.0000    
  -111.0000      -111.0000      -111.0000      -111.0000      -111.0000    
  -111.0000      -111.0000      -111.0000      -111.0000      -111.0000    
  -111.0000      -111.0000      -111.0000      -111.0000      -111.0000    
  -111.0000      -111.0000      -111.0000      -111.0000      -111.0000    
  -111.0000      -111.0000      -111.0000      -111.0000      -111.0000    
  -111.0000      -111.0000      -111.0000      -111.0000      -111.0000    
  -111.0000      -111.0000      -111.0000      -111.0000      -111.0000    
  -111.0000      -111.0000      -111.0000      -111.0000      -111.0000    
  -111.0000      -111.0000      -111.0000      -111.0000      -111.0000    
  -111.0000      -111.0000      -111.0000      -111.0000      -111.0000    
  -111.0000      -111.0000      -111.0000      -111.0000      -111.0000    
  -111.0000      -111.0000      -111.0000      -111.0000      -111.0000    
  -111.0000      -111.0000      -111.0000      -111.0000      -111.0000    
  -111.0000      -111.0000      -111.0000      -111.0000      -111.0000    
  -111.0000      -111.0000      -111.0000      -111.0000      -111.0000    
  -111.0000      -111.0000      -111.0000      -111.0000      -111.0000    
  -111.0000      -111.0000      -111.0000      -111.0000      -111.0000    
  -111.0000      -111.0000      -111.0000      -111.0000      -111.0000    
  -111.0000      -111.0000      -111.0000      -111.0000      -111.0000    
  -111.0000      -111.0000      -111.0000      -111.0000      -111.0000    
  -111.0000      -111.0000      -111.0000      -111.0000      -111.0000    
  -111.0000      -111.0000      -111.0000      -111.0000      -111.0000    
  -111.0000      -111.0000      -111.0000      -111.0000      -111.0000    
  -111.0000      -111.0000      -111.0000      -111.0000      -111.0000    
  -111.0000      -111.0000      -111.0000      -111.0000      -111.0000    
  -111.0000      -111.0000      -111.0000      -111.0000      -111.0000    
  -111.0000      -111.0000      -111.0000      -111.0000      -111.0000    
  -111.0000      -111.0000      -111.0000      -111.0000      -111.0000    
  -111.0000      -111.0000      -111.0000      -111.0000      -111.0000    
  -111.0000      -111.0000      -111.0000      -111.0000      -111.0000    
  -111.0000      -111.0000      -111.0000      -111.0000      -111.0000    
  -111.0000      -111.0000      -111.0000      -111.0000      -111.0000    
  -111.0000      -111.0000      -111.0000      -111.0000      -111.0000    
  -111.0000      -111.0000      -111.0000      -111.0000      -111.0000    
  -111.0000      -111.0000      -111.0000      -111.0000      -111.0000    
  -111.0000      -111.0000      -111.0000      -111.0000      -111.0000    
  -111.0000      -111.0000      -111.0000      -111.0000      -111.0000    
  -111.0000      -111.0000      -111.0000      -111.0000      -111.0000    
  -111.0000      -111.0000      -111.0000      -111.0000      -111.0000    
  -111.0000      -111.0000      -111.0000      -111.0000      -111.0000    
  -111.0000      -111.0000      -111.0000      -111.0000      -111.0000    
  -111.0000      -111.0000      -111.0000      -111.0000      -111.0000    
  -111.0000      -111.0000      -111.0000      -111.0000      -111.0000    
  -111.0000      -111.0000      -111.0000      -111.0000      -111.0000    
  -111.0000      -111.0000      -111.0000      -111.0000      -111.0000    
  -111.0000      -111.0000      -111.0000      -111.0000      -111.0000    
  -111.0000      -111.0000      -111.0000      -111.0000      -111.0000    
  -111.0000      -111.0000      -111.0000      -111.0000      -111.0000    
  -111.0000      -111.0000      -111.0000      -111.0000      -111.0000    
  -111.0000      -111.0000      -111.0000      -111.0000      -111.0000    
  -111.0000      -111.0000      -111.0000      -111.0000      -111.0000    
  -111.0000      -111.0000      -111.0000      -111.0000      -111.0000    
  -111.0000      -111.0000      -111.0000      -111.0000      -111.0000    
  -111.0000      -111.0000      -111.0000      -111.0000      -111.0000    
  -111.0000      -111.0000      -111.0000      -111.0000      -111.0000    
  -111.0000      -111.0000      -111.0000      -111.0000      -111.0000    
  -111.0000      -111.0000      -111.0000      -111.0000      -111.0000    
  -111.0000      -111.0000      -111.0000      -111.0000      -111.0000    
  -111.0000      -111.0000      -111.0000      -111.0000      -111.0000    
  -111.0000      -111.0000      -111.0000      -111.0000      -111.0000    
  -111.0000      -111.0000      -111.0000      -111.0000      -111.0000    
  -111.0000      -111.0000      -111.0000      -111.0000      -111.0000    
  -111.0000      -111.0000      -111.0000      -111.0000      -111.0000    
  -111.0000      -111.0000      -111.0000      -111.0000      -111.0000    
  -111.0000      -111.0000      -111.0000      -111.0000      -111.0000    
  -111.0000      -111.0000      -111.0000      -111.0000      -111.0000    
  -111.0000      -111.0000      -111.0000      -111.0000      -111.0000    
  -111.0000      -111.0000      -111.0000      -111.0000      -111.0000    
  -111.0000      -111.0000      -111.0000      -111.0000      -111.0000    
  -111.0000      -111.0000      -111.0000      -111.0000      -111.0000    
  -111.0000      -111.0000      -111.0000      -111.0000      -111.0000    
  -111.0000      -111.0000      -111.0000      -111.0000      -111.0000    
  -111.0000      -111.0000      -111.0000      -111.0000      -111.0000    
  -111.0000      -111.0000      -111.0000      -111.0000      -111.0000    
  -111.0000      -111.0000      -111.0000      -111.0000      -111.0000    
  -111.0000      -111.0000      -111.0000      -111.0000      -111.0000    
  -111.0000      -111.0000      -111.0000      -111.0000      -111.0000    
  -111.0000      -111.0000      -111.0000      -111.0000      -111.0000    
  -111.0000      -111.0000      -111.0000      -111.0000      -111.0000    
  -111.0000      -111.0000      -111.0000      -111.0000      -111.0000    
  -111.0000      -111.0000      -111.0000      -111.0000      -111.0000    
  -111.0000      -111.0000      -111.0000      -111.0000      -111.0000    
  -111.0000      -111.0000      -111.0000      -111.0000      -111.0000    
  -111.0000      -111.0000      -111.0000      -111.0000      -111.0000    
  -111.0000      -111.0000      -111.0000      -111.0000      -111.0000    
  -111.0000      -111.0000      -111.0000      -111.0000      -111.0000    
  -111.0000      -111.0000      -111.0000      -111.0000      -111.0000    
  -111.0000      -111.0000      -111.0000      -111.0000      -111.0000    
  -111.0000      -111.0000      -111.0000      -111.0000      -111.0000    
  -111.0000      -111.0000      -111.0000      -111.0000      -111.0000    
  -111.0000      -111.0000      -111.0000      -111.0000      -111.0000    
  -111.0000      -111.0000      -111.0000      -111.0000      -111.0000    
  -111.0000      -111.0000      -111.0000      -111.0000      -111.0000    
  -111.0000      -111.0000      -111.0000      -111.0000      -111.0000    
  -111.0000      -111.0000      -111.0000      -111.0000      -111.0000    
  -111.0000      -111.0000      -111.0000      -111.0000      -111.0000    
  -111.0000      -111.0000      -111.0000      -111.0000      -111.0000    
  -111.0000      -111.0000      -111.0000      -111.0000      -111.0000    
  -111.0000      -111.0000      -111.0000      -111.0000      -111.0000    
  -111.0000      -111.0000      -111.0000      -111.0000      -111.0000    
  -111.0000      -111.0000      -111.0000      -111.0000      -111.0000    
  -111.0000      -111.0000      -111.0000      -111.0000      -111.0000    
  -111.0000      -111.0000      -111.0000      -111.0000      -111.0000    
  -111.0000      -111.0000      -111.0000      -111.0000      -111.0000    
  -111.0000      -111.0000      -111.0000      -111.0000      -111.0000    
  -111.0000      -111.0000      -111.0000      -111.0000      -111.0000    
  -111.0000      -111.0000      -111.0000      -111.0000      -111.0000    
  -111.0000      -111.0000      -111.0000      -111.0000      -111.0000    
  -111.0000      -111.0000      -111.0000      -111.0000      -111.0000    
  -111.0000      -111.0000      -111.0000      -111.0000      -111.0000    
  -111.0000      -111.0000      -111.0000      -111.0000      -111.0000    
  -111.0000      -111.0000      -111.0000      -111.0000      -111.0000    
  -111.0000      -111.0000      -111.0000      -111.0000      -111.0000    
  -111.0000      -111.0000      -111.0000      -111.0000      -111.0000    
  -111.0000      -111.0000      -111.0000      -111.0000      -111.0000    
  -111.0000      -111.0000      -111.0000      -111.0000      -111.0000    
  -111.0000      -111.0000      -111.0000      -111.0000      -111.0000    
  -111.0000      -111.0000      -111.0000      -111.0000      -111.0000    
  -111.0000      -111.0000      -111.0000      -111.0000      -111.0000    
  -111.0000      -111.0000      -111.0000      -111.0000      -111.0000    
  -111.0000      -111.0000      -111.0000      -111.0000      -111.0000    
  -111.0000      -111.0000      -111.0000      -111.0000      -111.0000    
  -111.0000      -111.0000      -111.0000      -111.0000      -111.0000    
  -111.0000      -111.0000      -111.0000      -111.0000      -111.0000    
  -111.0000      -111.0000      -111.0000      -111.0000      -111.0000    
  -111.0000      -111.0000      -111.0000      -111.0000      -111.0000    
  -111.0000      -111.0000      -111.0000      -111.0000      -111.0000    
  -111.0000      -111.0000      -111.0000      -111.0000      -111.0000    
  -111.0000      -111.0000      -111.0000      -111.0000      -111.0000    
  -111.0000      -111.0000      -111.0000      -111.0000      -111.0000    
  -111.0000      -111.0000      -111.0000      -111.0000      -111.0000    
  -111.0000      -111.0000      -111.0000      -111.0000      -111.0000    
  -111.0000      -111.0000      -111.0000      -111.0000      -111.0000    
  -111.0000      -111.0000      -111.0000      -111.0000      -111.0000    
  -111.0000      -111.0000      -111.0000      -111.0000      -111.0000    
  -111.0000      -111.0000      -111.0000      -111.0000      -111.0000    
  -111.0000      -111.0000      -111.0000      -111.0000      -111.0000    
  -111.0000      -111.0000      -111.0000      -111.0000      -111.0000    
  -111.0000      -111.0000      -111.0000      -111.0000      -111.0000    
  -111.0000      -111.0000      -111.0000      -111.0000      -111.0000    
  -111.0000      -111.0000      -111.0000      -111.0000      -111.0000    
  -111.0000      -111.0000      -111.0000      -111.0000      -111.0000    
  -111.0000      -111.0000      -111.0000      -111.0000      -111.0000    
  -111.0000      -111.0000      -111.0000      -111.0000      -111.0000    
  -111.0000      -111.0000      -111.0000      -111.0000      -111.0000    
  -111.0000      -111.0000      -111.0000      -111.0000      -111.0000    
  -111.0000      -111.0000      -111.0000      -111.0000      -111.0000    
  -111.0000      -111.0000      -111.0000      -111.0000      -111.0000    
  -111.0000      -111.0000      -111.0000      -111.0000      -111.0000    
  -111.0000      -111.0000      -111.0000      -111.0000      -111.0000    
  -111.0000      -111.0000      -111.0000      -111.0000      -111.0000    
  -111.0000      -111.0000      -111.0000      -111.0000      -111.0000    
  -111.0000      -111.0000      -111.0000      -111.0000      -111.0000    
  -111.0000      -111.0000      -111.0000      -111.0000      -111.0000    
  -111.0000      -111.0000      -111.0000      -111.0000      -111.0000    
  -111.0000      -111.0000      -111.0000      -111.0000      -111.0000    
  -111.0000      -111.0000      -111.0000      -111.0000      -111.0000    
  -111.0000      -111.0000      -111.0000      -111.0000      -111.0000    
  -111.0000      -111.0000      -111.0000      -111.0000      -111.0000    
  -111.0000      -111.0000      -111.0000      -111.0000      -111.0000    
  -111.0000      -111.0000      -111.0000      -111.0000      -111.0000    
  -111.0000      -111.0000      -111.0000      -111.0000      -111.0000    
  -111.0000      -111.0000      -111.0000      -111.0000      -111.0000    
  -111.0000      -111.0000      -111.0000      -111.0000      -111.0000    
  -111.0000      -111.0000      -111.0000      -111.0000      -111.0000    
  -111.0000      -111.0000      -111.0000      -111.0000      -111.0000    
  -111.0000      -111.0000      -111.0000      -111.0000      -111.0000    
  -111.0000      -111.0000      -111.0000      -111.0000      -111.0000    
  -111.0000      -111.0000      -111.0000      -111.0000      -111.0000    
  -111.0000      -111.0000      -111.0000      -111.0000      -111.0000    
  -111.0000      -111.0000      -111.0000      -111.0000      -111.0000    
  -111.0000      -111.0000      -111.0000      -111.0000      -111.0000    
  -111.0000      -111.0000      -111.0000      -111.0000      -111.0000    
  -111.0000      -111.0000      -111.0000      -111.0000      -111.0000    
  -111.0000      -111.0000      -111.0000      -111.0000      -111.0000    
  -111.0000      -111.0000      -111.0000      -111.0000      -111.0000    
  -111.0000      -111.0000      -111.0000      -111.0000      -111.0000    
  -111.0000      -111.0000      -111.0000      -111.0000      -111.0000    
  -111.0000      -111.0000      -111.0000      -111.0000      -111.0000    
  -111.0000      -111.0000      -111.0000      -111.0000      -111.0000    
  -111.0000      -111.0000      -111.0000      -111.0000      -111.0000    