 LISTING FILE: p7.m3d
                         UNIT  16
# Transport package input files                                                                                                                                                                         

 OPENING p7.btn
 FILE TYPE:BTN   UNIT   1

 OPENING p7.adv
 FILE TYPE:ADV   UNIT   2

 OPENING p7.dsp
 FILE TYPE:DSP   UNIT   3

 OPENING p7.ssm
 FILE TYPE:SSM   UNIT   4

 OPENING p7.gcg
 FILE TYPE:GCG   UNIT   9
# Transport observation input file                                                                                                                                                                      

 OPENING p7.tob
 FILE TYPE:TOB   UNIT  12
# Flow-Transport Link input file                                                                                                                                                                        

 OPENING p7.ftl
 FILE TYPE:FTL   UNIT  10
# Uncomment the following lines to override                                                                                                                                                             
# the default names of optional MT3DMS output files                                                                                                                                                     
# mt3d001.ucn, mt3d001.obs, mt3d001.mas, mt3d.cnf.                                                                                                                                                      
# The unit numbers for these files are preset in the                                                                                                                                                    
# MT3DMS code.                                                                                                                                                                                          
# data(binary) 201 species1.ucn                                                                                                                                                                         
# data         401 species1.obs                                                                                                                                                                         
# data         601 species1.mas                                                                                                                                                                         
# data         17  model_a.cnf                                                                                                                                                                          

                              +++++++++++++++++++++++++++++++++++++++++++++++++++++++++++++++++++++++
                              +                                                                     +
                              +                               MT3DMS                                +
                              +             A Modular 3D Multi-Species Transport Model              +
                              +    For Simulation of Advection, Dispersion and Chemical Reactions   +
                              +                of Contaminants in Groundwater Systems               +
                              +                                                                     +
                              +++++++++++++++++++++++++++++++++++++++++++++++++++++++++++++++++++++++

  ----- 
 | M T | 3D TRANSPORT IN UNIFORM FLOW FIELD WITH CONTINUOUS POINT SOURCE                 
 | 3 D | (REFER TO SECTION 7.7 OF MT3DMS MANUAL)                                         
  ----- 
 THE TRANSPORT MODEL CONSISTS OF     8 LAYER(S)   15 ROW(S)   21 COLUMN(S)
 NUMBER OF STRESS PERIOD(S) FOR TRANSPORT SIMULATION =    1
 NUMBER OF ALL COMPONENTS INCLUDED IN SIMULATION =    1
 NUMBER OF MOBILE COMPONENTS INCLUDED IN SIMULATION =    1
 UNIT FOR TIME IS  DAY;  UNIT FOR LENGTH IS   FT;  UNIT FOR MASS IS   LB
 OPTIONAL PACKAGES INCLUDED IN CURRENT SIMULATION:
  o ADV   ON UNIT  2
  o DSP   ON UNIT  3
  o SSM   ON UNIT  4
  o GCG   ON UNIT  9
  o TOB   ON UNIT 12

 BTN5 -- BASIC TRANSPORT PACKAGE, VERSION 5, FEBRUARY 2010, INPUT READ FROM UNIT  1
      38187 ELEMENTS OF THE  X ARRAY USED BY THE BTN PACKAGE
       2528 ELEMENTS OF THE IX ARRAY USED BY THE BTN PACKAGE

 FMI5 -- FLOW MODEL INTERFACE PACKAGE, VERSION 5, FEBRUARY 2010, INPUT READ FROM UNIT 10
 FLOW MODEL IS STEADY-STATE
 FLOW MODEL CONTAINS CONSTANT-HEAD CELLS

 ADV5 -- ADVECTION PACKAGE, VERSION 5, FEBRUARY 2010, INPUT READ FROM UNIT  2
 ADVECTION IS SOLVED WITH THE ULTIMATE SCHEME
 COURANT NUMBER ALLOWED IN SOLVING THE ADVECTION TERM =  1.00    
          0 ELEMENTS OF THE  X ARRAY USED BY THE ADV PACKAGE
          0 ELEMENTS OF THE IX ARRAY USED BY THE ADV PACKAGE

 DSP5 -- DISPERSION PACKAGE, VERSION 5, FEBRUARY 2010, INPUT READ FROM UNIT  3
      27736 ELEMENTS OF THE  X ARRAY USED BY THE DSP PACKAGE
          0 ELEMENTS OF THE IX ARRAY USED BY THE DSP PACKAGE

 SSM5 -- SINK & SOURCE MIXING PACKAGE, VERSION 5, FEBRUARY 2010, INPUT READ FROM UNIT  4
 HEADER LINE OF THE SSM PACKAGE INPUT FILE:
  T F F F F F      FWEL,FDRN,FRCH,FEVT,FRIV,FGHB                                                                                                                                                         
 MAJOR STRESS COMPONENTS PRESENT IN THE FLOW MODEL:
  o WELL [WEL]
 MAXIMUM NUMBER OF POINT SINKS/SOURCES =    1000
      13000 ELEMENTS OF THE  X ARRAY USED BY THE SSM PACKAGE
          0 ELEMENTS OF THE IX ARRAY BY THE SSM PACKAGE

 GCG5 -- GENERALIZED CONJUGATE GRADIENT SOLVER PACKAGE, VERSION 5, FEBRUARY 2010 INPUT READ FROM UNIT  9
 MAXIMUM OF    1 OUTER ITERATIONS
        AND  200 INNER ITERATIONS ALLOWED FOR CLOSURE
 THE PRECONDITIONING TYPE SELECTED IS MODIFIED INCOMPLETE CHOLESKY (MIC).
 DISPERSION CROSS TERMS LUMPED INTO RIGHT-HAND-SIDE
      55640 ELEMENTS OF THE  X ARRAY USED BY THE GCG PACKAGE
        600 ELEMENTS OF THE IX ARRAY USED BY THE GCG PACKAGE

 TOB5 -- TRANSPORT OBSERVATION PACKAGE, VERSION 5, FEBRUARY 2010, INPUT READ FROM UNIT 12
#                                                                                                                                                                                                       
# TOB package input file                                                                                                                                                                                
#                                                                                                                                                                                                       
 MAXIMUM NUMBER OF CONC OBSERVATION WELLS =    100
 MAXIMUM NUMBER OF MASS-FLUX OBSERVATIONS =     10
 MAXIMUM NUMBER OF CELLS IN A FLUX OBJECT =    200
       6100 ELEMENTS OF THE  X ARRAY USED BY THE TOB PACKAGE
        800 ELEMENTS OF THE IX ARRAY USED BY THE TOB PACKAGE

 ..........................................
 ELEMENTS OF THE  X ARRAY USED =    140664
 ELEMENTS OF THE IX ARRAY USED =      3929
 ..........................................

 LAYER NUMBER  AQUIFER TYPE
 ------------  ------------
       1            0
       2            0
       3            0
       4            0
       5            0
       6            0
       7            0
       8            0
                                       WIDTH ALONG ROWS (DELR)  =   10.00000    
                                       WIDTH ALONG COLS (DELC)  =   10.00000    
                                       TOP ELEV. OF 1ST LAYER   =   80.00000    
                                       CELL THICKNESS (DZ)      =   10.00000     FOR LAYER  1
                                       CELL THICKNESS (DZ)      =   10.00000     FOR LAYER  2
                                       CELL THICKNESS (DZ)      =   10.00000     FOR LAYER  3
                                       CELL THICKNESS (DZ)      =   10.00000     FOR LAYER  4
                                       CELL THICKNESS (DZ)      =   10.00000     FOR LAYER  5
                                       CELL THICKNESS (DZ)      =   10.00000     FOR LAYER  6
                                       CELL THICKNESS (DZ)      =   10.00000     FOR LAYER  7
                                       CELL THICKNESS (DZ)      =   10.00000     FOR LAYER  8
                                       POROSITY                 =  0.2000000     FOR LAYER  1
                                       POROSITY                 =  0.2000000     FOR LAYER  2
                                       POROSITY                 =  0.2000000     FOR LAYER  3
                                       POROSITY                 =  0.2000000     FOR LAYER  4
                                       POROSITY                 =  0.2000000     FOR LAYER  5
                                       POROSITY                 =  0.2000000     FOR LAYER  6
                                       POROSITY                 =  0.2000000     FOR LAYER  7
                                       POROSITY                 =  0.2000000     FOR LAYER  8
                                       CONCN. BOUNDARY ARRAY    =              1 FOR LAYER  1
                                       CONCN. BOUNDARY ARRAY    =              1 FOR LAYER  2
                                       CONCN. BOUNDARY ARRAY    =              1 FOR LAYER  3

                     CONCN. BOUNDARY ARRAY    FOR LAYER  4 READ ON UNIT  1 USING FORMAT: "(21i2)              "
                     ------------------------------------------------------------------------------------------

       1  2  3  4  5  6  7  8  9 10 11 12 13 14 15 16 17 18 19 20 21
 ........................................................................
   1   1  1  1  1  1  1  1  1  1  1  1  1  1  1  1  1  1  1  1  1  1
   2   1  1  1  1  1  1  1  1  1  1  1  1  1  1  1  1  1  1  1  1  1
   3   1  1  1  1  1  1  1  1  1  1  1  1  1  1  1  1  1  1  1  1  1
   4   1  1  1  1  1  1  1  1  1  1  1  1  1  1  1  1  1  1  1  1  1
   5   1  1  1  1  1  1  1  1  1  1  1  1  1  1  1  1  1  1  1  1  1
   6   1  1  1  1  1  1  1  1  1  1  1  1  1  1  1  1  1  1  1  1  1
   7   1  1  1  1  1  1  1  1  1  1  1  1  1  1  1  1  1  1  1  1  1
   8   1  1  1  1  1  1  1  1  1  1  1  1  1  1  1  1  1  1  1  1  1
   9   1  1  1  1  1  1  1  1  1  1  1  1  1  1  1  1  1  1  1  1  1
  10   1  1  1  1  1  1  1  1  1  1  1  1  1  1  1  1  1  1  1  1  1
  11   1  1  1  1  1  1  1  1  1  1  1  1  1  1  1  1  1  1  1  1  1
  12   1  1  1  1  1  1  1  1  1  1  1  1  1  1  1  1  1  1  1  1  1
  13   1  1  1  1  1  1  1  1  1  1  1  1  1  1  1  1  1  1  1  1  1
  14   1  1  1  1  1  1  1  1  1  1  1  1  1  1  1  1  1  1  1  1  1
  15   1  1  1  1  1  1  1  1  1  1  1  1  1  1  1  1  1  1  1  1  1

                     CONCN. BOUNDARY ARRAY    FOR LAYER  5 READ ON UNIT  1 USING FORMAT: "(21i2)              "
                     ------------------------------------------------------------------------------------------

       1  2  3  4  5  6  7  8  9 10 11 12 13 14 15 16 17 18 19 20 21
 ........................................................................
   1   1  1  1  1  1  1  1  1  1  1  1  1  1  1  1  1  1  1  1  1  1
   2   1  1  1  1  1  1  1  1  1  1  1  1  1  1  1  1  1  1  1  1  1
   3   1  1  1  1  1  1  1  1  1  1  1  1  1  1  1  1  1  1  1  1  1
   4   1  1  1  1  1  1  1  1  1  1  1  1  1  1  1  1  1  1  1  1  1
   5   1  1  1  1  1  1  1  1  1  1  1  1  1  1  1  1  1  1  1  1  1
   6   1  1  1  1  1  1  1  1  1  1  1  1  1  1  1  1  1  1  1  1  1
   7   1  1  1  1  1  1  1  1  1  1  1  1  1  1  1  1  1  1  1  1  1
   8   1  1  1  1  1  1  1  1  1  1  1  1  1  1  1  1  1  1  1  1  1
   9   1  1  1  1  1  1  1  1  1  1  1  1  1  1  1  1  1  1  1  1  1
  10   1  1  1  1  1  1  1  1  1  1  1  1  1  1  1  1  1  1  1  1  1
  11   1  1  1  1  1  1  1  1  1  1  1  1  1  1  1  1  1  1  1  1  1
  12   1  1  1  1  1  1  1  1  1  1  1  1  1  1  1  1  1  1  1  1  1
  13   1  1  1  1  1  1  1  1  1  1  1  1  1  1  1  1  1  1  1  1  1
  14   1  1  1  1  1  1  1  1  1  1  1  1  1  1  1  1  1  1  1  1  1
  15   1  1  1  1  1  1  1  1  1  1  1  1  1  1  1  1  1  1  1  1  1

                     CONCN. BOUNDARY ARRAY    FOR LAYER  6 READ ON UNIT  1 USING FORMAT: "(21i2)              "
                     ------------------------------------------------------------------------------------------

       1  2  3  4  5  6  7  8  9 10 11 12 13 14 15 16 17 18 19 20 21
 ........................................................................
   1   1  1  1  1  1  1  1  1  1  1  1  1  1  1  1  1  1  1  1  1  1
   2   1  1  1  1  1  1  1  1  1  1  1  1  1  1  1  1  1  1  1  1  1
   3   1  1  1  1  1  1  1  1  1  1  1  1  1  1  1  1  1  1  1  1  1
   4   1  1  1  1  1  1  1  1  1  1  1  1  1  1  1  1  1  1  1  1  1
   5   1  1  1  1  1  1  1  1  1  1  1  1  1  1  1  1  1  1  1  1  1
   6   1  1  1  1  1  1  1  1  1  1  1  1  1  1  1  1  1  1  1  1  1
   7   1  1  1  1  1  1  1  1  1  1  1  1  1  1  1  1  1  1  1  1  1
   8   1  1  1  1  1  1  1  1  1  1  1  1  1  1  1  1  1  1  1  1  1
   9   1  1  1  1  1  1  1  1  1  1  1  1  1  1  1  1  1  1  1  1  1
  10   1  1  1  1  1  1  1  1  1  1  1  1  1  1  1  1  1  1  1  1  1
  11   1  1  1  1  1  1  1  1  1  1  1  1  1  1  1  1  1  1  1  1  1
  12   1  1  1  1  1  1  1  1  1  1  1  1  1  1  1  1  1  1  1  1  1
  13   1  1  1  1  1  1  1  1  1  1  1  1  1  1  1  1  1  1  1  1  1
  14   1  1  1  1  1  1  1  1  1  1  1  1  1  1  1  1  1  1  1  1  1
  15   1  1  1  1  1  1  1  1  1  1  1  1  1  1  1  1  1  1  1  1  1

                     CONCN. BOUNDARY ARRAY    FOR LAYER  7 READ ON UNIT  1 USING FORMAT: "(21i2)              "
                     ------------------------------------------------------------------------------------------

       1  2  3  4  5  6  7  8  9 10 11 12 13 14 15 16 17 18 19 20 21
 ........................................................................
   1   1  1  1  1  1  1  1  1  1  1  1  1  1  1  1  1  1  1  1  1  1
   2   1  1  1  1  1  1  1  1  1  1  1  1  1  1  1  1  1  1  1  1  1
   3   1  1  1  1  1  1  1  1  1  1  1  1  1  1  1  1  1  1  1  1  1
   4   1  1  1  1  1  1  1  1  1  1  1  1  1  1  1  1  1  1  1  1  1
   5   1  1  1  1  1  1  1  1  1  1  1  1  1  1  1  1  1  1  1  1  1
   6   1  1  1  1  1  1  1  1  1  1  1  1  1  1  1  1  1  1  1  1  1
   7   1  1  1  1  1  1  1  1  1  1  1  1  1  1  1  1  1  1  1  1  1
   8   1  1  1  1  1  1  1  1  1  1  1  1  1  1  1  1  1  1  1  1  1
   9   1  1  1  1  1  1  1  1  1  1  1  1  1  1  1  1  1  1  1  1  1
  10   1  1  1  1  1  1  1  1  1  1  1  1  1  1  1  1  1  1  1  1  1
  11   1  1  1  1  1  1  1  1  1  1  1  1  1  1  1  1  1  1  1  1  1
  12   1  1  1  1  1  1  1  1  1  1  1  1  1  1  1  1  1  1  1  1  1
  13   1  1  1  1  1  1  1  1  1  1  1  1  1  1  1  1  1  1  1  1  1
  14   1  1  1  1  1  1  1  1  1  1  1  1  1  1  1  1  1  1  1  1  1
  15   1  1  1  1  1  1  1  1  1  1  1  1  1  1  1  1  1  1  1  1  1
                                       CONCN. BOUNDARY ARRAY    =              1 FOR LAYER  8
                                       INITIAL CONC.: COMP.  01 =   0.000000     FOR LAYER  1
                                       INITIAL CONC.: COMP.  01 =   0.000000     FOR LAYER  2
                                       INITIAL CONC.: COMP.  01 =   0.000000     FOR LAYER  3
                                       INITIAL CONC.: COMP.  01 =   0.000000     FOR LAYER  4
                                       INITIAL CONC.: COMP.  01 =   0.000000     FOR LAYER  5
                                       INITIAL CONC.: COMP.  01 =   0.000000     FOR LAYER  6
                                       INITIAL CONC.: COMP.  01 =   0.000000     FOR LAYER  7
                                       INITIAL CONC.: COMP.  01 =   0.000000     FOR LAYER  8

 VALUE INDICATING INACTIVE CONCENTRATION CELLS =   -111.1100    
 MINIMUM SATURATED THICKNESS [THKMIN] ALLOWED =  0.0000 OF TOTAL CELL THICKNESS


 OUTPUT CONTROL OPTIONS
 ----------------------

 PRINT CELL CONCENTRATION USING FORMAT CODE:    1
 PRINT PARTICLE NUMBER IN EACH CELL USING FORMAT CODE:    2
 PRINT RETARDATION FACTOR USING FORMAT CODE:    0
 DO NOT PRINT DISPERSION COEFFICIENT
 SAVE DISSOLVED PHASE CONCENTRATIONS IN UNFORMATTED FILES [MT3Dnnn.UCN]
  FOR EACH SPECIES ON UNITS 201 AND ABOVE

 NUMBER OF TIMES AT WHICH SIMULATION RESULTS ARE SAVED =    6
 TOTAL ELAPSED TIMES AT WHICH SIMULATION RESULTS ARE SAVED: 
    10.500       25.000       50.000       200.00       250.00       300.00    

 NUMBER OF OBSERVATION POINTS =   10
 SAVE CONCENTRATIONS AT OBSERVATION POINTS IN FILES [MT3Dnnn.OBS]
  FOR EACH SPECIES ON UNITS 401 AND ABOVE, EVERY  1 TRANSPORT STEPS
 LOCATION OF OBSERVATION POINTS
 ..............................
 NUMBER  LAYER   ROW   COLUMN
   1        7      8      3
   2        6      8      3
   3        5      8      3
   4        5      8      5
   5        4      8      5
   6        5      9      5
   7        5     10      5
   8        7      8      4
   9        7      9      3
  10        7      9      4

 SAVE ONE-LINE SUMMARY OF MASS BUDGETS IN FILES [MT3Dnnn.MAS]
  FOR EACH SPECIES ON UNITS 601 AND ABOVE, EVERY  1 TRANSPORT STEPS

 MAXIMUM LENGTH ALONG THE X (J) AXIS =   210.0000    
 MAXIMUM LENGTH ALONG THE Y (I) AXIS =   150.0000    
 MAXIMUM LENGTH ALONG THE Z (K) AXIS =   80.00000    


 ADVECTION SOLUTION OPTIONS
 --------------------------

 ADVECTION IS SOLVED WITH THE ULTIMATE SCHEME
 COURANT NUMBER ALLOWED IN SOLVING THE ADVECTION TERM =  1.00    


 DISPERSION INPUT PARAMETERS
 ---------------------------

                                       LONG. DISPERSIVITY (AL)  =   10.00000     FOR LAYER  1
                                       LONG. DISPERSIVITY (AL)  =   10.00000     FOR LAYER  2
                                       LONG. DISPERSIVITY (AL)  =   10.00000     FOR LAYER  3
                                       LONG. DISPERSIVITY (AL)  =   10.00000     FOR LAYER  4
                                       LONG. DISPERSIVITY (AL)  =   10.00000     FOR LAYER  5
                                       LONG. DISPERSIVITY (AL)  =   10.00000     FOR LAYER  6
                                       LONG. DISPERSIVITY (AL)  =   10.00000     FOR LAYER  7
                                       LONG. DISPERSIVITY (AL)  =   10.00000     FOR LAYER  8
                                       H. TRANS./LONG. DISP.    =  0.3000000    
                                       V. TRANS./LONG. DISP.    =  0.3000000    
                                       DIFFUSION COEFFICIENT    =   0.000000    



                                               SOLUTION BY THE GENERALIZED CONJUGATE GRADIENT METHOD
                                               -----------------------------------------------------
                                     MAXIMUM OUTER ITERATIONS ALLOWED FOR CLOSURE =        1
                                     MAXIMUM INNER ITERATIONS ALLOWED FOR CLOSURE =      200
                                                    PRECONDITIONING TYPE SELECTED =    3
                                                           ACCELERATION PARAMETER =     1.0000    
                                       CONCENTRATION CHANGE CRITERION FOR CLOSURE =    0.10000E-05
                                       GCG CONCENTRATION CHANGE PRINTOUT INTERVAL =      999


 TRANSPORT OBSERVATION INPUT DATA
 --------------------------------

 NUMBER OF CONCENTRATION OBSERVATION WELLS:     5
    MULTIPLIER FOR OBSERVED CONCENTRATIONS:    1.000    
    OPTION FOR CALCULATING RESIDUAL ERRORS:     1
         OPTION FOR LOGARITHMIC CONVERSION:     0
 OPTION FOR INTERPOLATING CALCULATED CONC.:     1

 OBS_NAME     LAYER  ROW  COL. SPECIES  OBS_TIME   ROW_OFFSET  COL_OFFSET    WEIGHT      OBS_CONC
 ...................................................................................................
 ow1            -3    8    3      1      10.50      0.2500      0.2500       1.000       0.50000    
   @Layer   5  Proportion=  0.3000    
   @Layer   6  Proportion=  0.3000    
   @Layer   7  Proportion=  0.4000    
 ow2a            5    8    5      1      10.50       0.000       0.000       1.000       0.10000E-02
 ow2b            4    8    5      1      10.50       0.000       0.000      0.5000       0.10000E-04
 ow3             5    9    5      1     -2.000       0.000       0.000      -1.000        0.0000    
 ow4             5   10    5      1      10.50       0.000       0.000       1.000       0.10000E-04

            NUMBER OF MASS FLUX OBJECTS:     3
    MULTIPLIER FOR OBSERVED MASS FLUXES:    1.000    
 OPTION FOR CALCULATING RESIDUAL ERRORS:     1

           MASS FLUX OBJECT NO.:     1
    NUMBER OF OBSERVATION TIMES:     2
 NUMBER OF MODEL CELLS INCLUDED:     1
       TYPE OF MASS FLUX OBJECT: WELL           

 OBS_NAME    SPECIES  OBS_TIME     WEIGHT       OBS_FLUX
 .......................................................
 WELLFLUX_t1     1      10.50       1.000        50.000    
 WELLFLUX_t2     1      50.00       1.000        50.000    
 @Layer:   7; Row:    8; Column:    3; Fraction:   1.000

           MASS FLUX OBJECT NO.:     2
    NUMBER OF OBSERVATION TIMES:     3
 NUMBER OF MODEL CELLS INCLUDED:    60
       TYPE OF MASS FLUX OBJECT: CONSTANT HEAD  

 OBS_NAME    SPECIES  OBS_TIME     WEIGHT       OBS_FLUX
 .......................................................
 CHDFLUX1_t1     1      0.000      -1.000        0.0000    
 CHDFLUX1_t2     1      25.00      -1.000        0.0000    
 CHDFLUX1_t3     1      50.00      -1.000        0.0000    
 @Layer:   1; Row:    1; Column:   21; Fraction:   1.000
 @Layer:   1; Row:    2; Column:   21; Fraction:   1.000
 @Layer:   1; Row:    3; Column:   21; Fraction:   1.000
 @Layer:   1; Row:    4; Column:   21; Fraction:   1.000
 @Layer:   1; Row:    5; Column:   21; Fraction:   1.000
 @Layer:   1; Row:    6; Column:   21; Fraction:   1.000
 @Layer:   1; Row:    7; Column:   21; Fraction:   1.000
 @Layer:   1; Row:    8; Column:   21; Fraction:   1.000
 @Layer:   1; Row:    9; Column:   21; Fraction:   1.000
 @Layer:   1; Row:   10; Column:   21; Fraction:   1.000
 @Layer:   1; Row:   11; Column:   21; Fraction:   1.000
 @Layer:   1; Row:   12; Column:   21; Fraction:   1.000
 @Layer:   1; Row:   13; Column:   21; Fraction:   1.000
 @Layer:   1; Row:   14; Column:   21; Fraction:   1.000
 @Layer:   1; Row:   15; Column:   21; Fraction:   1.000
 @Layer:   2; Row:    1; Column:   21; Fraction:   1.000
 @Layer:   2; Row:    2; Column:   21; Fraction:   1.000
 @Layer:   2; Row:    3; Column:   21; Fraction:   1.000
 @Layer:   2; Row:    4; Column:   21; Fraction:   1.000
 @Layer:   2; Row:    5; Column:   21; Fraction:   1.000
 @Layer:   2; Row:    6; Column:   21; Fraction:   1.000
 @Layer:   2; Row:    7; Column:   21; Fraction:   1.000
 @Layer:   2; Row:    8; Column:   21; Fraction:   1.000
 @Layer:   2; Row:    9; Column:   21; Fraction:   1.000
 @Layer:   2; Row:   10; Column:   21; Fraction:   1.000
 @Layer:   2; Row:   11; Column:   21; Fraction:   1.000
 @Layer:   2; Row:   12; Column:   21; Fraction:   1.000
 @Layer:   2; Row:   13; Column:   21; Fraction:   1.000
 @Layer:   2; Row:   14; Column:   21; Fraction:   1.000
 @Layer:   2; Row:   15; Column:   21; Fraction:   1.000
 @Layer:   3; Row:    1; Column:   21; Fraction:   1.000
 @Layer:   3; Row:    2; Column:   21; Fraction:   1.000
 @Layer:   3; Row:    3; Column:   21; Fraction:   1.000
 @Layer:   3; Row:    4; Column:   21; Fraction:   1.000
 @Layer:   3; Row:    5; Column:   21; Fraction:   1.000
 @Layer:   3; Row:    6; Column:   21; Fraction:   1.000
 @Layer:   3; Row:    7; Column:   21; Fraction:   1.000
 @Layer:   3; Row:    8; Column:   21; Fraction:   1.000
 @Layer:   3; Row:    9; Column:   21; Fraction:   1.000
 @Layer:   3; Row:   10; Column:   21; Fraction:   1.000
 @Layer:   3; Row:   11; Column:   21; Fraction:   1.000
 @Layer:   3; Row:   12; Column:   21; Fraction:   1.000
 @Layer:   3; Row:   13; Column:   21; Fraction:   1.000
 @Layer:   3; Row:   14; Column:   21; Fraction:   1.000
 @Layer:   3; Row:   15; Column:   21; Fraction:   1.000
 @Layer:   4; Row:    1; Column:   21; Fraction:   1.000
 @Layer:   4; Row:    2; Column:   21; Fraction:   1.000
 @Layer:   4; Row:    3; Column:   21; Fraction:   1.000
 @Layer:   4; Row:    4; Column:   21; Fraction:   1.000
 @Layer:   4; Row:    5; Column:   21; Fraction:   1.000
 @Layer:   4; Row:    6; Column:   21; Fraction:   1.000
 @Layer:   4; Row:    7; Column:   21; Fraction:   1.000
 @Layer:   4; Row:    8; Column:   21; Fraction:   1.000
 @Layer:   4; Row:    9; Column:   21; Fraction:   1.000
 @Layer:   4; Row:   10; Column:   21; Fraction:   1.000
 @Layer:   4; Row:   11; Column:   21; Fraction:   1.000
 @Layer:   4; Row:   12; Column:   21; Fraction:   1.000
 @Layer:   4; Row:   13; Column:   21; Fraction:   1.000
 @Layer:   4; Row:   14; Column:   21; Fraction:   1.000
 @Layer:   4; Row:   15; Column:   21; Fraction:   1.000

           MASS FLUX OBJECT NO.:     3
    NUMBER OF OBSERVATION TIMES:     2
 NUMBER OF MODEL CELLS INCLUDED:    60
       TYPE OF MASS FLUX OBJECT: CONSTANT HEAD  

 OBS_NAME    SPECIES  OBS_TIME     WEIGHT       OBS_FLUX
 .......................................................
 CHFLUX2_t1      1      10.50      -1.000        0.0000    
 CHFLUX2_t2      1      50.00      -1.000        0.0000    
 @Layer:   5; Row:    1; Column:   21; Fraction:   1.000
 @Layer:   5; Row:    2; Column:   21; Fraction:   1.000
 @Layer:   5; Row:    3; Column:   21; Fraction:   1.000
 @Layer:   5; Row:    4; Column:   21; Fraction:   1.000
 @Layer:   5; Row:    5; Column:   21; Fraction:   1.000
 @Layer:   5; Row:    6; Column:   21; Fraction:   1.000
 @Layer:   5; Row:    7; Column:   21; Fraction:   1.000
 @Layer:   5; Row:    8; Column:   21; Fraction:   1.000
 @Layer:   5; Row:    9; Column:   21; Fraction:   1.000
 @Layer:   5; Row:   10; Column:   21; Fraction:   1.000
 @Layer:   5; Row:   11; Column:   21; Fraction:   1.000
 @Layer:   5; Row:   12; Column:   21; Fraction:   1.000
 @Layer:   5; Row:   13; Column:   21; Fraction:   1.000
 @Layer:   5; Row:   14; Column:   21; Fraction:   1.000
 @Layer:   5; Row:   15; Column:   21; Fraction:   1.000
 @Layer:   6; Row:    1; Column:   21; Fraction:   1.000
 @Layer:   6; Row:    2; Column:   21; Fraction:   1.000
 @Layer:   6; Row:    3; Column:   21; Fraction:   1.000
 @Layer:   6; Row:    4; Column:   21; Fraction:   1.000
 @Layer:   6; Row:    5; Column:   21; Fraction:   1.000
 @Layer:   6; Row:    6; Column:   21; Fraction:   1.000
 @Layer:   6; Row:    7; Column:   21; Fraction:   1.000
 @Layer:   6; Row:    8; Column:   21; Fraction:   1.000
 @Layer:   6; Row:    9; Column:   21; Fraction:   1.000
 @Layer:   6; Row:   10; Column:   21; Fraction:   1.000
 @Layer:   6; Row:   11; Column:   21; Fraction:   1.000
 @Layer:   6; Row:   12; Column:   21; Fraction:   1.000
 @Layer:   6; Row:   13; Column:   21; Fraction:   1.000
 @Layer:   6; Row:   14; Column:   21; Fraction:   1.000
 @Layer:   6; Row:   15; Column:   21; Fraction:   1.000
 @Layer:   7; Row:    1; Column:   21; Fraction:   1.000
 @Layer:   7; Row:    2; Column:   21; Fraction:   1.000
 @Layer:   7; Row:    3; Column:   21; Fraction:   1.000
 @Layer:   7; Row:    4; Column:   21; Fraction:   1.000
 @Layer:   7; Row:    5; Column:   21; Fraction:   1.000
 @Layer:   7; Row:    6; Column:   21; Fraction:   1.000
 @Layer:   7; Row:    7; Column:   21; Fraction:   1.000
 @Layer:   7; Row:    8; Column:   21; Fraction:   1.000
 @Layer:   7; Row:    9; Column:   21; Fraction:   1.000
 @Layer:   7; Row:   10; Column:   21; Fraction:   1.000
 @Layer:   7; Row:   11; Column:   21; Fraction:   1.000
 @Layer:   7; Row:   12; Column:   21; Fraction:   1.000
 @Layer:   7; Row:   13; Column:   21; Fraction:   1.000
 @Layer:   7; Row:   14; Column:   21; Fraction:   1.000
 @Layer:   7; Row:   15; Column:   21; Fraction:   1.000
 @Layer:   8; Row:    1; Column:   21; Fraction:   1.000
 @Layer:   8; Row:    2; Column:   21; Fraction:   1.000
 @Layer:   8; Row:    3; Column:   21; Fraction:   1.000
 @Layer:   8; Row:    4; Column:   21; Fraction:   1.000
 @Layer:   8; Row:    5; Column:   21; Fraction:   1.000
 @Layer:   8; Row:    6; Column:   21; Fraction:   1.000
 @Layer:   8; Row:    7; Column:   21; Fraction:   1.000
 @Layer:   8; Row:    8; Column:   21; Fraction:   1.000
 @Layer:   8; Row:    9; Column:   21; Fraction:   1.000
 @Layer:   8; Row:   10; Column:   21; Fraction:   1.000
 @Layer:   8; Row:   11; Column:   21; Fraction:   1.000
 @Layer:   8; Row:   12; Column:   21; Fraction:   1.000
 @Layer:   8; Row:   13; Column:   21; Fraction:   1.000
 @Layer:   8; Row:   14; Column:   21; Fraction:   1.000
 @Layer:   8; Row:   15; Column:   21; Fraction:   1.000


                                   ++++++++++++++++++++++++++++++++++++++++++++++++++++++++++++++
                                                       STRESS PERIOD NO.  001
                                   ++++++++++++++++++++++++++++++++++++++++++++++++++++++++++++++


 LENGTH OF CURRENT STRESS PERIOD =   50.00000    
 NUMBER OF TIME STEPS FOR CURRENT STRESS PERIOD =    1
 TIME STEP MULTIPLIER USED IN FLOW SOLUTION =   1.000000    
