#
# MT3DMS v5 Name file for test case P7
#

# Standard output file
LIST  0 p7.m3d

# Transport package input files
BTN   0 p7.btn
ADV   0 p7.adv
DSP   0 p7.dsp
SSM   0 p7.ssm
GCG   0 p7.gcg

# Transport observation input file
TOB   0 p7.tob

# Flow-Transport Link input file
FTL   0 p7.ftl  free noprint

# Uncomment the following lines to override
# the default names of optional MT3DMS output files
# mt3d001.ucn, mt3d001.obs, mt3d001.mas, mt3d.cnf.
# The unit numbers for these files are preset in the
# MT3DMS code.

# data(binary) 201 species1.ucn
# data         401 species1.obs
# data         601 species1.mas
# data         17  model_a.cnf
