# RCH8 input file, prepared by MF5to6 on 3/31/2016 at 18:28:22.

BEGIN Options
  READASARRAYS
END Options

BEGIN PERIOD 1
  RECHARGE
    CONSTANT   0.11600000E-01
END PERIOD
