# SMS8 input file, prepared by MF5to6 on 3/31/2016 at 18:28:22.

BEGIN Options
  PRINT_OPTION  SUMMARY
  COMPLEXITY  SIMPLE
END Options

BEGIN Nonlinear
  OUTER_HCLOSE   1e-4
  OUTER_MAXIMUM  500
  UNDER_RELAXATION  NONE
  UNDER_RELAXATION_THETA    0.000000    
  UNDER_RELAXATION_KAPPA    0.000000    
  UNDER_RELAXATION_GAMMA    0.000000    
  UNDER_RELAXATION_MOMENTUM    0.000000    
END Nonlinear

BEGIN LINEAR
  INNER_MAXIMUM  100
  INNER_HCLOSE   1e-4
  INNER_RCLOSE   1e-3
  LINEAR_ACCELERATION  CG
  #PRECONDITIONER_LEVELS  7
  #PRECONDITIONER_DROP_TOLERANCE   0.1000000E-02
  NUMBER_ORTHOGONALIZATIONS  2
  REORDERING_METHOD  NONE
  RELAXATION_FACTOR 1.
END LINEAR
