# STO8 input file, prepared by MF5to6 on 3/31/2016 at 18:28:22.

BEGIN Options
  STORAGECOEFFICIENT
END Options

BEGIN GRIDDATA
  ICONVERT LAYERED
    CONSTANT  1
    CONSTANT  1
    CONSTANT  1
    CONSTANT  1
    CONSTANT  1
  SS LAYERED
    CONSTANT   0.30000000E-03
    CONSTANT   0.30000000E-03
    CONSTANT   0.30000000E-03
    CONSTANT   0.30000000E-03
    CONSTANT   0.30000000E-03
  SY LAYERED
    CONSTANT   0.20000000    
    CONSTANT   0.20000000    
    CONSTANT   0.20000000    
    CONSTANT   0.20000000    
    CONSTANT   0.20000000    
END GRIDDATA
