# OC8 input file, prepared by MF5to6 on 3/31/2016 at 18:28:22.

BEGIN Options
  HEAD FILEOUT  lakeex2a.hds
  HEAD PRINT_FORMAT  COLUMNS 10  WIDTH 11  DIGITS 4  GENERAL
END Options

BEGIN PERIOD 1
  PRINT BUDGET STEPS 10 20 30 40 50 60 70 80 90 100 110 120 130 140 150 160 170 180 190 200
  SAVE HEAD STEPS 10 20 30 40 50 60 70 80 90 100 110 120 130 140 150 160 170 180 190 200
  PRINT HEAD STEPS 10 20 30 40 50 60 70 80 90 100 110 120 130 140 150 160 170 180 190 200
END PERIOD
