# SFR8 input file, prepared by MF5to6 on 3/31/2016 at 18:28:22.

BEGIN Options
  PRINT_FLOWS
  MAXIMUM_DEPTH_CHANGE   0.10000000E-03
  UNIT_CONVERSION    128390.40 
  MOVER  
  OBS6 FILEIN lakeex2a.sfr.obs
END Options

BEGIN Dimensions
  NREACHES  22
END Dimensions

BEGIN PACKAGEDATA
  # rno cellid rlen           rwid            rgrd            rbtp            rbth            rbhk             man     ncon  ustrf ndv
  1 1 2 5   1000.0000       5.0000000      0.11034483E-02   123.94827      0.50000000      0.50000000      0.50000001E-01 1 1.0000 0
  2 1 3 5   1000.0000       5.0000000      0.11034483E-02   122.84483      0.50000000      0.50000000      0.50000001E-01 2 1.0000 0
  3 1 4 5   1000.0000       5.0000000      0.11034483E-02   121.74138      0.50000000      0.50000000      0.50000001E-01 2 1.0000 0
  4 1 4 6   1000.0000       5.0000000      0.11034483E-02   120.63793      0.50000000      0.50000000      0.50000001E-01 2 1.0000 0
  5 1 4 7   500.00000       5.0000000      0.11034483E-02   119.81035      0.50000000      0.50000000      0.50000001E-01 2 1.0000 0
  6 1 4 8   750.00000       5.0000000      0.11034483E-02   119.12069      0.50000000      0.50000000      0.50000001E-01 2 1.0000 0
  7 1 5 8   1000.0000       5.0000000      0.11034483E-02   118.15517      0.50000000      0.50000000      0.50000001E-01 2 1.0000 0
  8 1 6 8   1000.0000       5.0000000      0.11034483E-02   117.05173      0.50000000      0.50000000      0.50000001E-01 1 1.0000 0
  9 1 12 9   1000.0000       5.0000000      0.82063244E-03   114.43968      0.50000000      0.50000000      0.50000001E-01 1 1.0000 0
  10 1 13 9   1000.0000       5.0000000      0.82063244E-03   113.61905      0.50000000      0.50000000      0.50000001E-01 2 1.0000 0
  11 1 14 10   559.00000       5.0000000      0.82063244E-03   112.97937      0.50000000      0.50000000      0.50000001E-01 2 1.0000 0
  12 1 14 10   559.00000       5.0000000      0.82063244E-03   112.52063      0.50000000      0.50000000      0.50000001E-01 2 1.0000 0
  13 1 15 10   1000.0000       5.0000000      0.82063244E-03   111.88095      0.50000000      0.50000000      0.50000001E-01 2 1.0000 0
  14 1 16 10   1000.0000       5.0000000      0.82063244E-03   111.06032      0.50000000      0.50000000      0.50000001E-01 1 1.0000 0
  15 1 22 10   1000.0000       5.0000000      0.94581972E-03   108.95569      0.50000000      0.50000000      0.50000001E-01 1 1.0000 0
  16 1 23 10   750.00000       5.0000000      0.94581972E-03   108.12810      0.50000000      0.50000000      0.50000001E-01 2 1.0000 0
  17 1 23 11   500.00000       5.0000000      0.94581972E-03   107.53696      0.50000000      0.50000000      0.50000001E-01 2 1.0000 0
  18 1 23 12   1000.0000       5.0000000      0.94581972E-03   106.82759      0.50000000      0.50000000      0.50000001E-01 2 1.0000 0
  19 1 23 13   1000.0000       5.0000000      0.94581972E-03   105.88177      0.50000000      0.50000000      0.50000001E-01 2 1.0000 0
  20 1 23 14   1000.0000       5.0000000      0.94581972E-03   104.93595      0.50000000      0.50000000      0.50000001E-01 2 1.0000 0
  21 1 23 15   1000.0000       5.0000000      0.94581972E-03   103.99014      0.50000000      0.50000000      0.50000001E-01 2 1.0000 0
  22 1 23 16   1000.0000       5.0000000      0.94581972E-03   103.04431      0.50000000      0.50000000      0.50000001E-01 1 1.0000 0
END PACKAGEDATA

BEGIN CONNECTIONDATA
  1 -2
  2 1 -3
  3 2 -4
  4 3 -5
  5 4 -6
  6 5 -7
  7 6 -8
  8 7
  9 -10
  10 9 -11
  11 10 -12
  12 11 -13
  13 12 -14
  14 13
  15 -16
  16 15 -17
  17 16 -18
  18 17 -19
  19 18 -20
  20 19 -21
  21 20 -22
  22 21
END CONNECTIONDATA

BEGIN PERIOD 1
   1 inflow   691200.00
   1 rainfall   0.0000000
   1 evaporation   0.0000000
   1 runoff   0.0000000
   2 inflow   0.0000000
   2 rainfall   0.0000000
   2 evaporation   0.0000000
   2 runoff   0.0000000
   3 inflow   0.0000000
   3 rainfall   0.0000000
   3 evaporation   0.0000000
   3 runoff   0.0000000
   4 inflow   0.0000000
   4 rainfall   0.0000000
   4 evaporation   0.0000000
   4 runoff   0.0000000
   5 inflow   0.0000000
   5 rainfall   0.0000000
   5 evaporation   0.0000000
   5 runoff   0.0000000
   6 inflow   0.0000000
   6 rainfall   0.0000000
   6 evaporation   0.0000000
   6 runoff   0.0000000
   7 inflow   0.0000000
   7 rainfall   0.0000000
   7 evaporation   0.0000000
   7 runoff   0.0000000
   8 inflow   0.0000000
   8 rainfall   0.0000000
   8 evaporation   0.0000000
   8 runoff   0.0000000
   9 inflow   0.0000000
   9 rainfall   0.0000000
   9 evaporation   0.0000000
   9 runoff   0.0000000
   10 inflow   0.0000000
   10 rainfall   0.0000000
   10 evaporation   0.0000000
   10 runoff   0.0000000
   11 inflow   0.0000000
   11 rainfall   0.0000000
   11 evaporation   0.0000000
   11 runoff   0.0000000
   12 inflow   0.0000000
   12 rainfall   0.0000000
   12 evaporation   0.0000000
   12 runoff   0.0000000
   13 inflow   0.0000000
   13 rainfall   0.0000000
   13 evaporation   0.0000000
   13 runoff   0.0000000
   14 inflow   0.0000000
   14 rainfall   0.0000000
   14 evaporation   0.0000000
   14 runoff   0.0000000
   15 inflow   0.0000000
   15 rainfall   0.0000000
   15 evaporation   0.0000000
   15 runoff   0.0000000
   16 inflow   0.0000000
   16 rainfall   0.0000000
   16 evaporation   0.0000000
   16 runoff   0.0000000
   17 inflow   0.0000000
   17 rainfall   0.0000000
   17 evaporation   0.0000000
   17 runoff   0.0000000
   18 inflow   0.0000000
   18 rainfall   0.0000000
   18 evaporation   0.0000000
   18 runoff   0.0000000
   19 inflow   0.0000000
   19 rainfall   0.0000000
   19 evaporation   0.0000000
   19 runoff   0.0000000
   20 inflow   0.0000000
   20 rainfall   0.0000000
   20 evaporation   0.0000000
   20 runoff   0.0000000
   21 inflow   0.0000000
   21 rainfall   0.0000000
   21 evaporation   0.0000000
   21 runoff   0.0000000
   22 inflow   0.0000000
   22 rainfall   0.0000000
   22 evaporation   0.0000000
   22 runoff   0.0000000
END PERIOD
