BEGIN OPTIONS
  PRINT_INPUT
  PRINT_FLOWS
END OPTIONS

BEGIN DIMENSIONS
  MAXMVR 10
  MAXPACKAGES 2
END DIMENSIONS

BEGIN PACKAGES
  SFR-1
  LAK-1
END PACKAGES

BEGIN PERIOD 1
  SFR-1  8 LAK-1  1 FACTOR 1.0
  LAK-1  1 SFR-1  9 FACTOR 1.0
  SFR-1 14 LAK-1  2 FACTOR 1.0
  
  # this tests FACTOR and order of entries
  LAK-1  2 SFR-1 15 FACTOR 0.50
  LAK-1  2 SFR-1 15 FACTOR 0.25
  LAK-1  2 SFR-1 15 FACTOR 1.00
  LAK-1  2 SFR-1 15 FACTOR 1.0
  LAK-1  2 SFR-1 15 FACTOR 1.0
  LAK-1  2 SFR-1 15 FACTOR 1.0
  LAK-1  2 SFR-1 15 FACTOR 1.0
END PERIOD 1
