# EVT8 input file, prepared by MF5to6 on 3/31/2016 at 18:28:22.

BEGIN Options
  READASARRAYS
  PRINT_INPUT
  FIXED_CELL
END Options

BEGIN PERIOD 1
  RATE
    CONSTANT   0.14100000E-01
  DEPTH
    CONSTANT    15.000000    
  SURFACE
    INTERNAL  FACTOR  1.0  IPRN  12
  160.0000       159.0000       157.4000       155.9000       154.3000       152.7000
  151.6000       150.8000       150.0000       149.2000       148.4000       147.3000
  145.7000       144.1000       142.6000       141.0000       140.0000
  160.0000       159.0000       157.4000       155.9000       154.3000       152.7000
  151.6000       150.8000       150.0000       149.2000       148.4000       147.3000
  145.7000       144.1000       142.6000       141.0000       140.0000
  160.0000       159.0000       157.4000       155.9000       154.3000       152.7000
  151.6000       150.8000       150.0000       149.2000       148.4000       147.3000
  145.7000       144.1000       142.6000       141.0000       140.0000
  160.0000       159.0000       157.4000       155.9000       154.3000       152.7000
  151.6000       150.8000       150.0000       149.2000       148.4000       147.3000
  145.7000       144.1000       142.6000       141.0000       140.0000
  160.0000       159.0000       157.4000       155.9000       154.3000       152.7000
  151.6000       150.8000       150.0000       149.2000       148.4000       147.3000
  145.7000       144.1000       142.6000       141.0000       140.0000
  160.0000       159.0000       157.4000       155.9000       154.3000       152.7000
  151.6000       150.8000       150.0000       149.2000       148.4000       147.3000
  145.7000       144.1000       142.6000       141.0000       140.0000
  160.0000       159.0000       157.4000       155.9000       154.3000       152.7000
  105.0000       105.0000       105.0000       105.0000       105.0000       147.3000
  145.7000       144.1000       142.6000       141.0000       140.0000
  160.0000       159.0000       157.4000       155.9000       154.3000       152.7000
  105.0000       95.00000       95.00000       95.00000       105.0000       147.3000
  145.7000       144.1000       142.6000       141.0000       140.0000
  160.0000       159.0000       157.4000       155.9000       154.3000       152.7000
  105.0000       95.00000       95.00000       95.00000       105.0000       147.3000
  145.7000       144.1000       142.6000       141.0000       140.0000
  160.0000       159.0000       157.4000       155.9000       154.3000       152.7000
  105.0000       95.00000       95.00000       95.00000       105.0000       147.3000
  145.7000       144.1000       142.6000       141.0000       140.0000
  160.0000       159.0000       157.4000       155.9000       154.3000       152.7000
  105.0000       105.0000       105.0000       105.0000       105.0000       147.3000
  145.7000       144.1000       142.6000       141.0000       140.0000
  160.0000       159.0000       157.4000       155.9000       154.3000       152.7000
  151.6000       150.8000       150.0000       149.2000       148.4000       147.3000
  145.7000       144.1000       142.6000       141.0000       140.0000
  160.0000       159.0000       157.4000       155.9000       154.3000       152.7000
  151.6000       150.8000       150.0000       149.2000       148.4000       147.3000
  145.7000       144.1000       142.6000       141.0000       140.0000
  160.0000       159.0000       157.4000       155.9000       154.3000       152.7000
  151.6000       150.8000       150.0000       149.2000       148.4000       147.3000
  145.7000       144.1000       142.6000       141.0000       140.0000
  160.0000       159.0000       157.4000       155.9000       154.3000       152.7000
  151.6000       150.8000       150.0000       149.2000       148.4000       147.3000
  145.7000       144.1000       142.6000       141.0000       140.0000
  160.0000       159.0000       157.4000       155.9000       154.3000       152.7000
  151.6000       150.8000       150.0000       149.2000       148.4000       147.3000
  145.7000       144.1000       142.6000       141.0000       140.0000
  160.0000       159.0000       157.4000       155.9000       154.3000       152.7000
  105.0000       105.0000       105.0000       105.0000       105.0000       147.3000
  145.7000       144.1000       142.6000       141.0000       140.0000
  160.0000       159.0000       157.4000       155.9000       154.3000       152.7000
  105.0000       95.00000       95.00000       95.00000       105.0000       147.3000
  145.7000       144.1000       142.6000       141.0000       140.0000
  160.0000       159.0000       157.4000       155.9000       154.3000       152.7000
  105.0000       95.00000       95.00000       95.00000       105.0000       147.3000
  145.7000       144.1000       142.6000       141.0000       140.0000
  160.0000       159.0000       157.4000       155.9000       154.3000       152.7000
  105.0000       95.00000       95.00000       95.00000       105.0000       147.3000
  145.7000       144.1000       142.6000       141.0000       140.0000
  160.0000       159.0000       157.4000       155.9000       154.3000       152.7000
  105.0000       105.0000       105.0000       105.0000       105.0000       147.3000
  145.7000       144.1000       142.6000       141.0000       140.0000
  160.0000       159.0000       157.4000       155.9000       154.3000       152.7000
  151.6000       150.8000       150.0000       149.2000       148.4000       147.3000
  145.7000       144.1000       142.6000       141.0000       140.0000
  160.0000       159.0000       157.4000       155.9000       154.3000       152.7000
  151.6000       150.8000       150.0000       149.2000       148.4000       147.3000
  145.7000       144.1000       142.6000       141.0000       140.0000
  160.0000       159.0000       157.4000       155.9000       154.3000       152.7000
  151.6000       150.8000       150.0000       149.2000       148.4000       147.3000
  145.7000       144.1000       142.6000       141.0000       140.0000
  160.0000       159.0000       157.4000       155.9000       154.3000       152.7000
  151.6000       150.8000       150.0000       149.2000       148.4000       147.3000
  145.7000       144.1000       142.6000       141.0000       140.0000
  160.0000       159.0000       157.4000       155.9000       154.3000       152.7000
  151.6000       150.8000       150.0000       149.2000       148.4000       147.3000
  145.7000       144.1000       142.6000       141.0000       140.0000
  160.0000       159.0000       157.4000       155.9000       154.3000       152.7000
  151.6000       150.8000       150.0000       149.2000       148.4000       147.3000
  145.7000       144.1000       142.6000       141.0000       140.0000
END PERIOD
