# MODFLOW-USGs Basic Package
# MODFLOW2000 Dataset Imported into Groundwater Vistas
#   
 UNSTRUCTURED FREE
INTERNAL          1 (FREE)    3  IBOUND layer   1
  -1  -1  -1  -1  -1  -1  -1  -1  -1  -1  -1  -1  -1  -1  -1  -1  -1
  -1   1   1   1   1   1   1   1   1   1   1   1   1   1   1   1  -1
  -1   1   1   1   1   1   1   1   1   1   1   1   1   1   1   1  -1
  -1   1   1   1   1   1   1   1   1   1   1   1   1   1   1   1  -1
  -1   1   1   1   1   1   1   1   1   1   1   1   1   1   1   1  -1
  -1   1   1   1   1   1   1   1   1   1   1   1   1   1   1   1  -1
  -1   1   1   1   1   1   0   0   0   0   0   1   1   1   1   1  -1
  -1   1   1   1   1   1   0   0   0   0   0   1   1   1   1   1  -1
  -1   1   1   1   1   1   0   0   0   0   0   1   1   1   1   1  -1
  -1   1   1   1   1   1   0   0   0   0   0   1   1   1   1   1  -1
  -1   1   1   1   1   1   0   0   0   0   0   1   1   1   1   1  -1
  -1   1   1   1   1   1   1   1   1   1   1   1   1   1   1   1  -1
  -1   1   1   1   1   1   1   1   1   1   1   1   1   1   1   1  -1
  -1   1   1   1   1   1   1   1   1   1   1   1   1   1   1   1  -1
  -1   1   1   1   1   1   1   1   1   1   1   1   1   1   1   1  -1
  -1   1   1   1   1   1   1   1   1   1   1   1   1   1   1   1  -1
  -1  -1  -1  -1  -1  -1  -1  -1  -1  -1  -1  -1  -1  -1  -1  -1  -1
INTERNAL          1 (FREE)    3  IBOUND layer   2
  -1  -1  -1  -1  -1  -1  -1  -1  -1  -1  -1  -1  -1  -1  -1  -1  -1
  -1   1   1   1   1   1   1   1   1   1   1   1   1   1   1   1  -1
  -1   1   1   1   1   1   1   1   1   1   1   1   1   1   1   1  -1
  -1   1   1   1   1   1   1   1   1   1   1   1   1   1   1   1  -1
  -1   1   1   1   1   1   1   1   1   1   1   1   1   1   1   1  -1
  -1   1   1   1   1   1   1   1   1   1   1   1   1   1   1   1  -1
  -1   1   1   1   1   1   1   1   1   1   1   1   1   1   1   1  -1
  -1   1   1   1   1   1   1   0   0   0   1   1   1   1   1   1  -1
  -1   1   1   1   1   1   1   0   0   0   1   1   1   1   1   1  -1
  -1   1   1   1   1   1   1   0   0   0   1   1   1   1   1   1  -1
  -1   1   1   1   1   1   1   1   1   1   1   1   1   1   1   1  -1
  -1   1   1   1   1   1   1   1   1   1   1   1   1   1   1   1  -1
  -1   1   1   1   1   1   1   1   1   1   1   1   1   1   1   1  -1
  -1   1   1   1   1   1   1   1   1   1   1   1   1   1   1   1  -1
  -1   1   1   1   1   1   1   1   1   1   1   1   1   1   1   1  -1
  -1   1   1   1   1   1   1   1   1   1   1   1   1   1   1   1  -1
  -1  -1  -1  -1  -1  -1  -1  -1  -1  -1  -1  -1  -1  -1  -1  -1  -1
INTERNAL          1 (FREE)    3  IBOUND layer   3
  -1  -1  -1  -1  -1  -1  -1  -1  -1  -1  -1  -1  -1  -1  -1  -1  -1
  -1   1   1   1   1   1   1   1   1   1   1   1   1   1   1   1  -1
  -1   1   1   1   1   1   1   1   1   1   1   1   1   1   1   1  -1
  -1   1   1   1   1   1   1   1   1   1   1   1   1   1   1   1  -1
  -1   1   1   1   1   1   1   1   1   1   1   1   1   1   1   1  -1
  -1   1   1   1   1   1   1   1   1   1   1   1   1   1   1   1  -1
  -1   1   1   1   1   1   1   1   1   1   1   1   1   1   1   1  -1
  -1   1   1   1   1   1   1   1   1   1   1   1   1   1   1   1  -1
  -1   1   1   1   1   1   1   1   1   1   1   1   1   1   1   1  -1
  -1   1   1   1   1   1   1   1   1   1   1   1   1   1   1   1  -1
  -1   1   1   1   1   1   1   1   1   1   1   1   1   1   1   1  -1
  -1   1   1   1   1   1   1   1   1   1   1   1   1   1   1   1  -1
  -1   1   1   1   1   1   1   1   1   1   1   1   1   1   1   1  -1
  -1   1   1   1   1   1   1   1   1   1   1   1   1   1   1   1  -1
  -1   1   1   1   1   1   1   1   1   1   1   1   1   1   1   1  -1
  -1   1   1   1   1   1   1   1   1   1   1   1   1   1   1   1  -1
  -1  -1  -1  -1  -1  -1  -1  -1  -1  -1  -1  -1  -1  -1  -1  -1  -1
INTERNAL          1 (FREE)    3  IBOUND layer   4
  -1  -1  -1  -1  -1  -1  -1  -1  -1  -1  -1  -1  -1  -1  -1  -1  -1
  -1   1   1   1   1   1   1   1   1   1   1   1   1   1   1   1  -1
  -1   1   1   1   1   1   1   1   1   1   1   1   1   1   1   1  -1
  -1   1   1   1   1   1   1   1   1   1   1   1   1   1   1   1  -1
  -1   1   1   1   1   1   1   1   1   1   1   1   1   1   1   1  -1
  -1   1   1   1   1   1   1   1   1   1   1   1   1   1   1   1  -1
  -1   1   1   1   1   1   1   1   1   1   1   1   1   1   1   1  -1
  -1   1   1   1   1   1   1   1   1   1   1   1   1   1   1   1  -1
  -1   1   1   1   1   1   1   1   1   1   1   1   1   1   1   1  -1
  -1   1   1   1   1   1   1   1   1   1   1   1   1   1   1   1  -1
  -1   1   1   1   1   1   1   1   1   1   1   1   1   1   1   1  -1
  -1   1   1   1   1   1   1   1   1   1   1   1   1   1   1   1  -1
  -1   1   1   1   1   1   1   1   1   1   1   1   1   1   1   1  -1
  -1   1   1   1   1   1   1   1   1   1   1   1   1   1   1   1  -1
  -1   1   1   1   1   1   1   1   1   1   1   1   1   1   1   1  -1
  -1   1   1   1   1   1   1   1   1   1   1   1   1   1   1   1  -1
  -1  -1  -1  -1  -1  -1  -1  -1  -1  -1  -1  -1  -1  -1  -1  -1  -1
INTERNAL          1 (FREE)    3  IBOUND layer   5
  -1  -1  -1  -1  -1  -1  -1  -1  -1  -1  -1  -1  -1  -1  -1  -1  -1
  -1   1   1   1   1   1   1   1   1   1   1   1   1   1   1   1  -1
  -1   1   1   1   1   1   1   1   1   1   1   1   1   1   1   1  -1
  -1   1   1   1   1   1   1   1   1   1   1   1   1   1   1   1  -1
  -1   1   1   1   1   1   1   1   1   1   1   1   1   1   1   1  -1
  -1   1   1   1   1   1   1   1   1   1   1   1   1   1   1   1  -1
  -1   1   1   1   1   1   1   1   1   1   1   1   1   1   1   1  -1
  -1   1   1   1   1   1   1   1   1   1   1   1   1   1   1   1  -1
  -1   1   1   1   1   1   1   1   1   1   1   1   1   1   1   1  -1
  -1   1   1   1   1   1   1   1   1   1   1   1   1   1   1   1  -1
  -1   1   1   1   1   1   1   1   1   1   1   1   1   1   1   1  -1
  -1   1   1   1   1   1   1   1   1   1   1   1   1   1   1   1  -1
  -1   1   1   1   1   1   1   1   1   1   1   1   1   1   1   1  -1
  -1   1   1   1   1   1   1   1   1   1   1   1   1   1   1   1  -1
  -1   1   1   1   1   1   1   1   1   1   1   1   1   1   1   1  -1
  -1   1   1   1   1   1   1   1   1   1   1   1   1   1   1   1  -1
  -1  -1  -1  -1  -1  -1  -1  -1  -1  -1  -1  -1  -1  -1  -1  -1  -1
-9.990000e+002
CONSTANT  1.150000e+002              Starting Heads Layer 1
CONSTANT  1.150000e+002              Starting Heads Layer 2
CONSTANT  1.150000e+002              Starting Heads Layer 3
CONSTANT  1.150000e+002              Starting Heads Layer 4
CONSTANT  1.150000e+002              Starting Heads Layer 5