# MODFLOW-USGs Recharge Package
 3 0   CONC
 1     INDEX ARRAY FOR CONC
 1 INCONC
CONSTANT  1.160000e-002  (FREE)  -1  RECHARGE
CONSTANT           0.00  (FREE)  -1  CONC