# MODFLOW-USGs Drain Package
 0 0
 0 0
