# MODFLOW-USGs Constant-Head Boundary Package (CHD)
       320
 320
 1   115.000000  115.000000
 2   115.000000  115.000000
 3   115.000000  115.000000
 4   115.000000  115.000000
 5   115.000000  115.000000
 6   115.000000  115.000000
 7   115.000000  115.000000
 8   115.000000  115.000000
 9   115.000000  115.000000
 10   115.000000  115.000000
 11   115.000000  115.000000
 12   115.000000  115.000000
 13   115.000000  115.000000
 14   115.000000  115.000000
 15   115.000000  115.000000
 16   115.000000  115.000000
 17   115.000000  115.000000
 18   115.000000  115.000000
 34   115.000000  115.000000
 35   115.000000  115.000000
 51   115.000000  115.000000
 52   115.000000  115.000000
 68   115.000000  115.000000
 69   115.000000  115.000000
 85   115.000000  115.000000
 86   115.000000  115.000000
 102   115.000000  115.000000
 103   115.000000  115.000000
 119   115.000000  115.000000
 120   115.000000  115.000000
 136   115.000000  115.000000
 137   115.000000  115.000000
 153   115.000000  115.000000
 154   115.000000  115.000000
 170   115.000000  115.000000
 171   115.000000  115.000000
 187   115.000000  115.000000
 188   115.000000  115.000000
 204   115.000000  115.000000
 205   115.000000  115.000000
 221   115.000000  115.000000
 222   115.000000  115.000000
 238   115.000000  115.000000
 239   115.000000  115.000000
 255   115.000000  115.000000
 256   115.000000  115.000000
 272   115.000000  115.000000
 273   115.000000  115.000000
 274   115.000000  115.000000
 275   115.000000  115.000000
 276   115.000000  115.000000
 277   115.000000  115.000000
 278   115.000000  115.000000
 279   115.000000  115.000000
 280   115.000000  115.000000
 281   115.000000  115.000000
 282   115.000000  115.000000
 283   115.000000  115.000000
 284   115.000000  115.000000
 285   115.000000  115.000000
 286   115.000000  115.000000
 287   115.000000  115.000000
 288   115.000000  115.000000
 289   115.000000  115.000000
 290   115.000000  115.000000
 291   115.000000  115.000000
 292   115.000000  115.000000
 293   115.000000  115.000000
 294   115.000000  115.000000
 295   115.000000  115.000000
 296   115.000000  115.000000
 297   115.000000  115.000000
 298   115.000000  115.000000
 299   115.000000  115.000000
 300   115.000000  115.000000
 301   115.000000  115.000000
 302   115.000000  115.000000
 303   115.000000  115.000000
 304   115.000000  115.000000
 305   115.000000  115.000000
 306   115.000000  115.000000
 307   115.000000  115.000000
 323   115.000000  115.000000
 324   115.000000  115.000000
 340   115.000000  115.000000
 341   115.000000  115.000000
 357   115.000000  115.000000
 358   115.000000  115.000000
 374   115.000000  115.000000
 375   115.000000  115.000000
 391   115.000000  115.000000
 392   115.000000  115.000000
 408   115.000000  115.000000
 409   115.000000  115.000000
 425   115.000000  115.000000
 426   115.000000  115.000000
 442   115.000000  115.000000
 443   115.000000  115.000000
 459   115.000000  115.000000
 460   115.000000  115.000000
 476   115.000000  115.000000
 477   115.000000  115.000000
 493   115.000000  115.000000
 494   115.000000  115.000000
 510   115.000000  115.000000
 511   115.000000  115.000000
 527   115.000000  115.000000
 528   115.000000  115.000000
 544   115.000000  115.000000
 545   115.000000  115.000000
 561   115.000000  115.000000
 562   115.000000  115.000000
 563   115.000000  115.000000
 564   115.000000  115.000000
 565   115.000000  115.000000
 566   115.000000  115.000000
 567   115.000000  115.000000
 568   115.000000  115.000000
 569   115.000000  115.000000
 570   115.000000  115.000000
 571   115.000000  115.000000
 572   115.000000  115.000000
 573   115.000000  115.000000
 574   115.000000  115.000000
 575   115.000000  115.000000
 576   115.000000  115.000000
 577   115.000000  115.000000
 578   115.000000  115.000000
 579   115.000000  115.000000
 580   115.000000  115.000000
 581   115.000000  115.000000
 582   115.000000  115.000000
 583   115.000000  115.000000
 584   115.000000  115.000000
 585   115.000000  115.000000
 586   115.000000  115.000000
 587   115.000000  115.000000
 588   115.000000  115.000000
 589   115.000000  115.000000
 590   115.000000  115.000000
 591   115.000000  115.000000
 592   115.000000  115.000000
 593   115.000000  115.000000
 594   115.000000  115.000000
 595   115.000000  115.000000
 596   115.000000  115.000000
 612   115.000000  115.000000
 613   115.000000  115.000000
 629   115.000000  115.000000
 630   115.000000  115.000000
 646   115.000000  115.000000
 647   115.000000  115.000000
 663   115.000000  115.000000
 664   115.000000  115.000000
 680   115.000000  115.000000
 681   115.000000  115.000000
 697   115.000000  115.000000
 698   115.000000  115.000000
 714   115.000000  115.000000
 715   115.000000  115.000000
 731   115.000000  115.000000
 732   115.000000  115.000000
 748   115.000000  115.000000
 749   115.000000  115.000000
 765   115.000000  115.000000
 766   115.000000  115.000000
 782   115.000000  115.000000
 783   115.000000  115.000000
 799   115.000000  115.000000
 800   115.000000  115.000000
 816   115.000000  115.000000
 817   115.000000  115.000000
 833   115.000000  115.000000
 834   115.000000  115.000000
 850   115.000000  115.000000
 851   115.000000  115.000000
 852   115.000000  115.000000
 853   115.000000  115.000000
 854   115.000000  115.000000
 855   115.000000  115.000000
 856   115.000000  115.000000
 857   115.000000  115.000000
 858   115.000000  115.000000
 859   115.000000  115.000000
 860   115.000000  115.000000
 861   115.000000  115.000000
 862   115.000000  115.000000
 863   115.000000  115.000000
 864   115.000000  115.000000
 865   115.000000  115.000000
 866   115.000000  115.000000
 867   115.000000  115.000000
 868   115.000000  115.000000
 869   115.000000  115.000000
 870   115.000000  115.000000
 871   115.000000  115.000000
 872   115.000000  115.000000
 873   115.000000  115.000000
 874   115.000000  115.000000
 875   115.000000  115.000000
 876   115.000000  115.000000
 877   115.000000  115.000000
 878   115.000000  115.000000
 879   115.000000  115.000000
 880   115.000000  115.000000
 881   115.000000  115.000000
 882   115.000000  115.000000
 883   115.000000  115.000000
 884   115.000000  115.000000
 885   115.000000  115.000000
 901   115.000000  115.000000
 902   115.000000  115.000000
 918   115.000000  115.000000
 919   115.000000  115.000000
 935   115.000000  115.000000
 936   115.000000  115.000000
 952   115.000000  115.000000
 953   115.000000  115.000000
 969   115.000000  115.000000
 970   115.000000  115.000000
 986   115.000000  115.000000
 987   115.000000  115.000000
 1003   115.000000  115.000000
 1004   115.000000  115.000000
 1020   115.000000  115.000000
 1021   115.000000  115.000000
 1037   115.000000  115.000000
 1038   115.000000  115.000000
 1054   115.000000  115.000000
 1055   115.000000  115.000000
 1071   115.000000  115.000000
 1072   115.000000  115.000000
 1088   115.000000  115.000000
 1089   115.000000  115.000000
 1105   115.000000  115.000000
 1106   115.000000  115.000000
 1122   115.000000  115.000000
 1123   115.000000  115.000000
 1139   115.000000  115.000000
 1140   115.000000  115.000000
 1141   115.000000  115.000000
 1142   115.000000  115.000000
 1143   115.000000  115.000000
 1144   115.000000  115.000000
 1145   115.000000  115.000000
 1146   115.000000  115.000000
 1147   115.000000  115.000000
 1148   115.000000  115.000000
 1149   115.000000  115.000000
 1150   115.000000  115.000000
 1151   115.000000  115.000000
 1152   115.000000  115.000000
 1153   115.000000  115.000000
 1154   115.000000  115.000000
 1155   115.000000  115.000000
 1156   115.000000  115.000000
 1157   115.000000  115.000000
 1158   115.000000  115.000000
 1159   115.000000  115.000000
 1160   115.000000  115.000000
 1161   115.000000  115.000000
 1162   115.000000  115.000000
 1163   115.000000  115.000000
 1164   115.000000  115.000000
 1165   115.000000  115.000000
 1166   115.000000  115.000000
 1167   115.000000  115.000000
 1168   115.000000  115.000000
 1169   115.000000  115.000000
 1170   115.000000  115.000000
 1171   115.000000  115.000000
 1172   115.000000  115.000000
 1173   115.000000  115.000000
 1174   115.000000  115.000000
 1190   115.000000  115.000000
 1191   115.000000  115.000000
 1207   115.000000  115.000000
 1208   115.000000  115.000000
 1224   115.000000  115.000000
 1225   115.000000  115.000000
 1241   115.000000  115.000000
 1242   115.000000  115.000000
 1258   115.000000  115.000000
 1259   115.000000  115.000000
 1275   115.000000  115.000000
 1276   115.000000  115.000000
 1292   115.000000  115.000000
 1293   115.000000  115.000000
 1309   115.000000  115.000000
 1310   115.000000  115.000000
 1326   115.000000  115.000000
 1327   115.000000  115.000000
 1343   115.000000  115.000000
 1344   115.000000  115.000000
 1360   115.000000  115.000000
 1361   115.000000  115.000000
 1377   115.000000  115.000000
 1378   115.000000  115.000000
 1394   115.000000  115.000000
 1395   115.000000  115.000000
 1411   115.000000  115.000000
 1412   115.000000  115.000000
 1428   115.000000  115.000000
 1429   115.000000  115.000000
 1430   115.000000  115.000000
 1431   115.000000  115.000000
 1432   115.000000  115.000000
 1433   115.000000  115.000000
 1434   115.000000  115.000000
 1435   115.000000  115.000000
 1436   115.000000  115.000000
 1437   115.000000  115.000000
 1438   115.000000  115.000000
 1439   115.000000  115.000000
 1440   115.000000  115.000000
 1441   115.000000  115.000000
 1442   115.000000  115.000000
 1443   115.000000  115.000000
 1444   115.000000  115.000000
 1445   115.000000  115.000000
