# File generated by Flopy version 3.5.0.dev0 on 10/30/2023 at 09:03:35.
BEGIN options
  STORAGECOEFFICIENT
END options

BEGIN griddata
  iconvert  LAYERED
    CONSTANT  0
    CONSTANT  0
    CONSTANT  0
  ss
    CONSTANT       0.00000000
  sy  LAYERED
    CONSTANT       0.10000000
    CONSTANT       0.00000000
    CONSTANT       0.00000000
END griddata

BEGIN period  1
  STEADY-STATE
END period  1

BEGIN period  2
  TRANSIENT
END period  2

