# File generated by Flopy version 3.5.0.dev0 on 10/30/2023 at 09:03:35.
BEGIN options
END options

BEGIN dimensions
  MAXBOUND  4
END dimensions

BEGIN period  1
  1 10 4 0.00000000E+00
  1 10 5 0.00000000E+00
  1 10 6 0.00000000E+00
  1 10 7 0.00000000E+00
END period  1

