# File generated by Flopy version 3.5.0.dev0 on 10/30/2023 at 09:03:35.
BEGIN options
  PRINT_OPTION  summary
END options

BEGIN nonlinear
  OUTER_DVCLOSE  1.00000000E-09
  OUTER_MAXIMUM  500
  UNDER_RELAXATION  none
END nonlinear

BEGIN linear
  INNER_MAXIMUM  300
  INNER_DVCLOSE  1.00000000E-09
  inner_rclose  1.00000000E-06
  LINEAR_ACCELERATION  cg
  RELAXATION_FACTOR       1.00000000
  SCALING_METHOD  none
  REORDERING_METHOD  none
END linear

