MT3DMS Benchmark Test Problem #1
1D UNIFORM FLOW FIELD
         1         1       101         1         4
 11 00 00  0  0  0  0 00 00  0  0 22 00 00 25 00 00 00 00 00 00 66 00 00
         0         0       /IAPART,ISTRT
         1         1(15I3)                       3    /IBOUND-1
 -1  1  1  1  1  1  1  1  1  1  1  1  1  1  1
  1  1  1  1  1  1  1  1  1  1  1  1  1  1  1
  1  1  1  1  1  1  1  1  1  1  1  1  1  1  1
  1  1  1  1  1  1  1  1  1  1  1  1  1  1  1
  1  1  1  1  1  1  1  1  1  1  1  1  1  1  1
  1  1  1  1  1  1  1  1  1  1  1  1  1  1  1
  1  1  1  1  1  1  1  1  1  1 -1
    999.99
         1        0.(15F3.0)                     4    /HEAD-1
 7. 7. 7. 7. 7. 7. 7. 7. 7. 7. 7. 7. 7. 7. 7.
 6. 6. 6. 6. 6. 6. 6. 6. 6. 6. 6. 6. 6. 6. 6.
 5. 5. 5. 5. 5. 5. 5. 5. 5. 5. 5. 5. 5. 5. 5.
 4. 4. 4. 4. 4. 4. 4. 4. 4. 4. 4. 4. 4. 4. 4.
 3. 3. 3. 3. 3. 3. 3. 3. 3. 3. 3. 3. 3. 3. 3.
 2. 2. 2. 2. 2. 2. 2. 2. 2. 2. 2. 2. 2. 2. 2.
 1. 1. 1. 1. 1. 1. 1. 1. 1. 1. 1.
        1.         1        1.                        /PERLEN,NSTP,TSMULT
