# File generated by Flopy version 3.10.0.dev1 on 02/05/2025 at 13:05:06.
BEGIN options
  HEAD  FILEOUT  disv01b.hds
END options

BEGIN period  1
  SAVE  HEAD  ALL
END period  1

