# File generated by Flopy version 3.10.0.dev1 on 02/05/2025 at 13:05:06.
BEGIN options
  EXPORT_ARRAY_NETCDF
END options

BEGIN griddata
  strt
    CONSTANT       0.00000000
END griddata

