# File generated by Flopy version 3.10.0.dev1 on 02/05/2025 at 13:05:06.
BEGIN options
END options

BEGIN packages
  DISV6  disv01b.disv  disv
  IC6  disv01b.ic  ic
  NPF6  disv01b.npf  npf
  CHD6  disv01b.chd  chd_0
  OC6  disv01b.oc  oc
END packages

