# File generated by Flopy version 3.10.0.dev1 on 02/05/2025 at 13:05:06.
BEGIN options
END options

BEGIN timing
  TDIS6  disv01b.tdis
END timing

BEGIN models
  gwf6  disv01b.nam  disv01b
END models

BEGIN exchanges
END exchanges

BEGIN solutiongroup  1
  ims6  disv01b.ims  disv01b
END solutiongroup  1

