# MODFLOW-USG Block-Centered Transport (BCT) Package
 1 0 0 1 5 1 0   -1.000000e+00 1.000000e-07    0 0 0.000000e+00 0 0  0   1  0  0  1 TIMEWEIGHT 1.000000 
  5.800000e-01  1.000000e+03  4.174000e+03
INTERNAL  1.000000e+00  (FREE)  -1  Porosity Layer 1
 3.500000e-01
INTERNAL  1.000000e+00  (FREE)  -1  Porosity Layer 2
 3.500000e-01
INTERNAL  1.000000e+00  (FREE)  -1  Porosity Layer 3
 3.500000e-01
INTERNAL  1.000000e+00  (FREE)  -1  Porosity Layer 4
 3.500000e-01
INTERNAL  1.000000e+00  (FREE)  -1  Porosity Layer 5
 3.500000e-01
INTERNAL  1.000000e+00  (FREE)  -1  Porosity Layer 6
 3.500000e-01
INTERNAL  1.000000e+00  (FREE)  -1  Porosity Layer 7
 3.500000e-01
INTERNAL  1.000000e+00  (FREE)  -1  Porosity Layer 8
 3.500000e-01
INTERNAL  1.000000e+00  (FREE)  -1  Porosity Layer 9
 3.500000e-01
INTERNAL  1.000000e+00  (FREE)  -1  Porosity Layer 10
 3.500000e-01
INTERNAL  1.000000e+00  (FREE)  -1  Porosity Layer 11
 3.500000e-01
INTERNAL  1.000000e+00  (FREE)  -1  Porosity Layer 12
 3.500000e-01
INTERNAL  1.000000e+00  (FREE)  -1  Porosity Layer 13
 3.500000e-01
INTERNAL  1.000000e+00  (FREE)  -1  Porosity Layer 14
 3.500000e-01
INTERNAL  1.000000e+00  (FREE)  -1  Porosity Layer 15
 3.500000e-01
INTERNAL  1.000000e+00  (FREE)  -1  Porosity Layer 16
 3.500000e-01
INTERNAL  1.000000e+00  (FREE)  -1  Porosity Layer 17
 3.500000e-01
INTERNAL  1.000000e+00  (FREE)  -1  Porosity Layer 18
 3.500000e-01
INTERNAL  1.000000e+00  (FREE)  -1  Porosity Layer 19
 3.500000e-01
INTERNAL  1.000000e+00  (FREE)  -1  Porosity Layer 20
 3.500000e-01
INTERNAL  1.000000e+00  (FREE)  -1  Porosity Layer 21
 3.500000e-01
INTERNAL  1.000000e+00  (FREE)  -1  Porosity Layer 22
 3.500000e-01
INTERNAL  1.000000e+00  (FREE)  -1  Porosity Layer 23
 3.500000e-01
INTERNAL  1.000000e+00  (FREE)  -1  Porosity Layer 24
 3.500000e-01
INTERNAL  1.000000e+00  (FREE)  -1  Porosity Layer 25
 3.500000e-01
INTERNAL  1.000000e+00  (FREE)  -1  Porosity Layer 26
 3.500000e-01
INTERNAL  1.000000e+00  (FREE)  -1  Porosity Layer 27
 3.500000e-01
INTERNAL  1.000000e+00  (FREE)  -1  Porosity Layer 28
 3.500000e-01
INTERNAL  1.000000e+00  (FREE)  -1  Porosity Layer 29
 3.500000e-01
INTERNAL  1.000000e+00  (FREE)  -1  Porosity Layer 30
 3.500000e-01
INTERNAL  1.000000e+00  (FREE)  -1  Porosity Layer 31
 3.500000e-01
INTERNAL  1.000000e+00  (FREE)  -1  Porosity Layer 32
 3.500000e-01
INTERNAL  1.000000e+00  (FREE)  -1  Porosity Layer 33
 3.500000e-01
INTERNAL  1.000000e+00  (FREE)  -1  Porosity Layer 34
 3.500000e-01
INTERNAL  1.000000e+00  (FREE)  -1  Porosity Layer 35
 3.500000e-01
INTERNAL  1.000000e+00  (FREE)  -1  Porosity Layer 36
 3.500000e-01
INTERNAL  1.000000e+00  (FREE)  -1  Porosity Layer 37
 3.500000e-01
INTERNAL  1.000000e+00  (FREE)  -1  Porosity Layer 38
 3.500000e-01
INTERNAL  1.000000e+00  (FREE)  -1  Porosity Layer 39
 3.500000e-01
INTERNAL  1.000000e+00  (FREE)  -1  Porosity Layer 40
 3.500000e-01
INTERNAL  1.000000e+00  (FREE)  -1  Porosity Layer 41
 3.500000e-01
INTERNAL  1.000000e+00  (FREE)  -1  Porosity Layer 42
 3.500000e-01
INTERNAL  1.000000e+00  (FREE)  -1  Porosity Layer 43
 3.500000e-01
INTERNAL  1.000000e+00  (FREE)  -1  Porosity Layer 44
 3.500000e-01
INTERNAL  1.000000e+00  (FREE)  -1  Porosity Layer 45
 3.500000e-01
INTERNAL  1.000000e+00  (FREE)  -1  Porosity Layer 46
 3.500000e-01
INTERNAL  1.000000e+00  (FREE)  -1  Porosity Layer 47
 3.500000e-01
INTERNAL  1.000000e+00  (FREE)  -1  Porosity Layer 48
 3.500000e-01
INTERNAL  1.000000e+00  (FREE)  -1  Porosity Layer 49
 3.500000e-01
INTERNAL  1.000000e+00  (FREE)  -1  Porosity Layer 50
 3.500000e-01
INTERNAL  1.000000e+00  (FREE)  -1  Porosity Layer 51
 3.500000e-01
INTERNAL  1.000000e+00  (FREE)  -1  Porosity Layer 52
 3.500000e-01
INTERNAL  1.000000e+00  (FREE)  -1  Porosity Layer 53
 3.500000e-01
INTERNAL  1.000000e+00  (FREE)  -1  Porosity Layer 54
 3.500000e-01
INTERNAL  1.000000e+00  (FREE)  -1  Porosity Layer 55
 3.500000e-01
INTERNAL  1.000000e+00  (FREE)  -1  Porosity Layer 56
 3.500000e-01
INTERNAL  1.000000e+00  (FREE)  -1  Porosity Layer 57
 3.500000e-01
INTERNAL  1.000000e+00  (FREE)  -1  Porosity Layer 58
 3.500000e-01
INTERNAL  1.000000e+00  (FREE)  -1  Porosity Layer 59
 3.500000e-01
INTERNAL  1.000000e+00  (FREE)  -1  Porosity Layer 60
 3.500000e-01
INTERNAL  1.000000e+00  (FREE)  -1  Porosity Layer 61
 3.500000e-01
INTERNAL  1.000000e+00  (FREE)  -1  Porosity Layer 62
 3.500000e-01
INTERNAL  1.000000e+00  (FREE)  -1  Porosity Layer 63
 3.500000e-01
INTERNAL  1.000000e+00  (FREE)  -1  Porosity Layer 64
 3.500000e-01
INTERNAL  1.000000e+00  (FREE)  -1  Porosity Layer 65
 3.500000e-01
INTERNAL  1.000000e+00  (FREE)  -1  Porosity Layer 66
 3.500000e-01
INTERNAL  1.000000e+00  (FREE)  -1  Porosity Layer 67
 3.500000e-01
INTERNAL  1.000000e+00  (FREE)  -1  Porosity Layer 68
 3.500000e-01
INTERNAL  1.000000e+00  (FREE)  -1  Porosity Layer 69
 3.500000e-01
INTERNAL  1.000000e+00  (FREE)  -1  Porosity Layer 70
 3.500000e-01
INTERNAL  1.000000e+00  (FREE)  -1  Porosity Layer 71
 3.500000e-01
INTERNAL  1.000000e+00  (FREE)  -1  Porosity Layer 72
 3.500000e-01
INTERNAL  1.000000e+00  (FREE)  -1  Porosity Layer 73
 3.500000e-01
INTERNAL  1.000000e+00  (FREE)  -1  Porosity Layer 74
 3.500000e-01
INTERNAL  1.000000e+00  (FREE)  -1  Porosity Layer 75
 3.500000e-01
INTERNAL  1.000000e+00  (FREE)  -1  Porosity Layer 76
 3.500000e-01
INTERNAL  1.000000e+00  (FREE)  -1  Porosity Layer 77
 3.500000e-01
INTERNAL  1.000000e+00  (FREE)  -1  Porosity Layer 78
 3.500000e-01
INTERNAL  1.000000e+00  (FREE)  -1  Porosity Layer 79
 3.500000e-01
INTERNAL  1.000000e+00  (FREE)  -1  Porosity Layer 80
 3.500000e-01
INTERNAL  1.000000e+00  (FREE)  -1  Porosity Layer 81
 3.500000e-01
INTERNAL  1.000000e+00  (FREE)  -1  Porosity Layer 82
 3.500000e-01
INTERNAL  1.000000e+00  (FREE)  -1  Porosity Layer 83
 3.500000e-01
INTERNAL  1.000000e+00  (FREE)  -1  Porosity Layer 84
 3.500000e-01
INTERNAL  1.000000e+00  (FREE)  -1  Porosity Layer 85
 3.500000e-01
INTERNAL  1.000000e+00  (FREE)  -1  Porosity Layer 86
 3.500000e-01
INTERNAL  1.000000e+00  (FREE)  -1  Porosity Layer 87
 3.500000e-01
INTERNAL  1.000000e+00  (FREE)  -1  Porosity Layer 88
 3.500000e-01
INTERNAL  1.000000e+00  (FREE)  -1  Porosity Layer 89
 3.500000e-01
INTERNAL  1.000000e+00  (FREE)  -1  Porosity Layer 90
 3.500000e-01
INTERNAL  1.000000e+00  (FREE)  -1  Porosity Layer 91
 3.500000e-01
INTERNAL  1.000000e+00  (FREE)  -1  Porosity Layer 92
 3.500000e-01
INTERNAL  1.000000e+00  (FREE)  -1  Porosity Layer 93
 3.500000e-01
INTERNAL  1.000000e+00  (FREE)  -1  Porosity Layer 94
 3.500000e-01
INTERNAL  1.000000e+00  (FREE)  -1  Porosity Layer 95
 3.500000e-01
INTERNAL  1.000000e+00  (FREE)  -1  Porosity Layer 96
 3.500000e-01
INTERNAL  1.000000e+00  (FREE)  -1  Porosity Layer 97
 3.500000e-01
INTERNAL  1.000000e+00  (FREE)  -1  Porosity Layer 98
 3.500000e-01
INTERNAL  1.000000e+00  (FREE)  -1  Porosity Layer 99
 3.500000e-01
INTERNAL  1.000000e+00  (FREE)  -1  Porosity Layer 100
 3.500000e-01
INTERNAL  1.000000e+00  (FREE)  -1  Porosity Layer 101
 3.500000e-01
INTERNAL  1.000000e+00  (FREE)  -1  Porosity Layer 102
 3.500000e-01
INTERNAL  1.000000e+00  (FREE)  -1  Porosity Layer 103
 3.500000e-01
INTERNAL  1.000000e+00  (FREE)  -1  Porosity Layer 104
 3.500000e-01
INTERNAL  1.000000e+00  (FREE)  -1  Porosity Layer 105
 3.500000e-01
INTERNAL  1.000000e+00  (FREE)  -1  Porosity Layer 106
 3.500000e-01
INTERNAL  1.000000e+00  (FREE)  -1  Porosity Layer 107
 3.500000e-01
INTERNAL  1.000000e+00  (FREE)  -1  Porosity Layer 108
 3.500000e-01
INTERNAL  1.000000e+00  (FREE)  -1  Porosity Layer 109
 3.500000e-01
INTERNAL  1.000000e+00  (FREE)  -1  Porosity Layer 110
 3.500000e-01
INTERNAL  1.000000e+00  (FREE)  -1  Porosity Layer 111
 3.500000e-01
INTERNAL  1.000000e+00  (FREE)  -1  Porosity Layer 112
 3.500000e-01
INTERNAL  1.000000e+00  (FREE)  -1  Porosity Layer 113
 3.500000e-01
INTERNAL  1.000000e+00  (FREE)  -1  Porosity Layer 114
 3.500000e-01
INTERNAL  1.000000e+00  (FREE)  -1  Porosity Layer 115
 3.500000e-01
INTERNAL  1.000000e+00  (FREE)  -1  Porosity Layer 116
 3.500000e-01
INTERNAL  1.000000e+00  (FREE)  -1  Porosity Layer 117
 3.500000e-01
INTERNAL  1.000000e+00  (FREE)  -1  Porosity Layer 118
 3.500000e-01
INTERNAL  1.000000e+00  (FREE)  -1  Porosity Layer 119
 3.500000e-01
INTERNAL  1.000000e+00  (FREE)  -1  Porosity Layer 120
 3.500000e-01
INTERNAL  1.000000e+00  (FREE)  -1  BULKD Layer 1
 1.709500e+03
INTERNAL  1.000000e+00  (FREE)  -1  BULKD Layer 2
 1.709500e+03
INTERNAL  1.000000e+00  (FREE)  -1  BULKD Layer 3
 1.709500e+03
INTERNAL  1.000000e+00  (FREE)  -1  BULKD Layer 4
 1.709500e+03
INTERNAL  1.000000e+00  (FREE)  -1  BULKD Layer 5
 1.709500e+03
INTERNAL  1.000000e+00  (FREE)  -1  BULKD Layer 6
 1.709500e+03
INTERNAL  1.000000e+00  (FREE)  -1  BULKD Layer 7
 1.709500e+03
INTERNAL  1.000000e+00  (FREE)  -1  BULKD Layer 8
 1.709500e+03
INTERNAL  1.000000e+00  (FREE)  -1  BULKD Layer 9
 1.709500e+03
INTERNAL  1.000000e+00  (FREE)  -1  BULKD Layer 10
 1.709500e+03
INTERNAL  1.000000e+00  (FREE)  -1  BULKD Layer 11
 1.709500e+03
INTERNAL  1.000000e+00  (FREE)  -1  BULKD Layer 12
 1.709500e+03
INTERNAL  1.000000e+00  (FREE)  -1  BULKD Layer 13
 1.709500e+03
INTERNAL  1.000000e+00  (FREE)  -1  BULKD Layer 14
 1.709500e+03
INTERNAL  1.000000e+00  (FREE)  -1  BULKD Layer 15
 1.709500e+03
INTERNAL  1.000000e+00  (FREE)  -1  BULKD Layer 16
 1.709500e+03
INTERNAL  1.000000e+00  (FREE)  -1  BULKD Layer 17
 1.709500e+03
INTERNAL  1.000000e+00  (FREE)  -1  BULKD Layer 18
 1.709500e+03
INTERNAL  1.000000e+00  (FREE)  -1  BULKD Layer 19
 1.709500e+03
INTERNAL  1.000000e+00  (FREE)  -1  BULKD Layer 20
 1.709500e+03
INTERNAL  1.000000e+00  (FREE)  -1  BULKD Layer 21
 1.709500e+03
INTERNAL  1.000000e+00  (FREE)  -1  BULKD Layer 22
 1.709500e+03
INTERNAL  1.000000e+00  (FREE)  -1  BULKD Layer 23
 1.709500e+03
INTERNAL  1.000000e+00  (FREE)  -1  BULKD Layer 24
 1.709500e+03
INTERNAL  1.000000e+00  (FREE)  -1  BULKD Layer 25
 1.709500e+03
INTERNAL  1.000000e+00  (FREE)  -1  BULKD Layer 26
 1.709500e+03
INTERNAL  1.000000e+00  (FREE)  -1  BULKD Layer 27
 1.709500e+03
INTERNAL  1.000000e+00  (FREE)  -1  BULKD Layer 28
 1.709500e+03
INTERNAL  1.000000e+00  (FREE)  -1  BULKD Layer 29
 1.709500e+03
INTERNAL  1.000000e+00  (FREE)  -1  BULKD Layer 30
 1.709500e+03
INTERNAL  1.000000e+00  (FREE)  -1  BULKD Layer 31
 1.709500e+03
INTERNAL  1.000000e+00  (FREE)  -1  BULKD Layer 32
 1.709500e+03
INTERNAL  1.000000e+00  (FREE)  -1  BULKD Layer 33
 1.709500e+03
INTERNAL  1.000000e+00  (FREE)  -1  BULKD Layer 34
 1.709500e+03
INTERNAL  1.000000e+00  (FREE)  -1  BULKD Layer 35
 1.709500e+03
INTERNAL  1.000000e+00  (FREE)  -1  BULKD Layer 36
 1.709500e+03
INTERNAL  1.000000e+00  (FREE)  -1  BULKD Layer 37
 1.709500e+03
INTERNAL  1.000000e+00  (FREE)  -1  BULKD Layer 38
 1.709500e+03
INTERNAL  1.000000e+00  (FREE)  -1  BULKD Layer 39
 1.709500e+03
INTERNAL  1.000000e+00  (FREE)  -1  BULKD Layer 40
 1.709500e+03
INTERNAL  1.000000e+00  (FREE)  -1  BULKD Layer 41
 1.709500e+03
INTERNAL  1.000000e+00  (FREE)  -1  BULKD Layer 42
 1.709500e+03
INTERNAL  1.000000e+00  (FREE)  -1  BULKD Layer 43
 1.709500e+03
INTERNAL  1.000000e+00  (FREE)  -1  BULKD Layer 44
 1.709500e+03
INTERNAL  1.000000e+00  (FREE)  -1  BULKD Layer 45
 1.709500e+03
INTERNAL  1.000000e+00  (FREE)  -1  BULKD Layer 46
 1.709500e+03
INTERNAL  1.000000e+00  (FREE)  -1  BULKD Layer 47
 1.709500e+03
INTERNAL  1.000000e+00  (FREE)  -1  BULKD Layer 48
 1.709500e+03
INTERNAL  1.000000e+00  (FREE)  -1  BULKD Layer 49
 1.709500e+03
INTERNAL  1.000000e+00  (FREE)  -1  BULKD Layer 50
 1.709500e+03
INTERNAL  1.000000e+00  (FREE)  -1  BULKD Layer 51
 1.709500e+03
INTERNAL  1.000000e+00  (FREE)  -1  BULKD Layer 52
 1.709500e+03
INTERNAL  1.000000e+00  (FREE)  -1  BULKD Layer 53
 1.709500e+03
INTERNAL  1.000000e+00  (FREE)  -1  BULKD Layer 54
 1.709500e+03
INTERNAL  1.000000e+00  (FREE)  -1  BULKD Layer 55
 1.709500e+03
INTERNAL  1.000000e+00  (FREE)  -1  BULKD Layer 56
 1.709500e+03
INTERNAL  1.000000e+00  (FREE)  -1  BULKD Layer 57
 1.709500e+03
INTERNAL  1.000000e+00  (FREE)  -1  BULKD Layer 58
 1.709500e+03
INTERNAL  1.000000e+00  (FREE)  -1  BULKD Layer 59
 1.709500e+03
INTERNAL  1.000000e+00  (FREE)  -1  BULKD Layer 60
 1.709500e+03
INTERNAL  1.000000e+00  (FREE)  -1  BULKD Layer 61
 1.709500e+03
INTERNAL  1.000000e+00  (FREE)  -1  BULKD Layer 62
 1.709500e+03
INTERNAL  1.000000e+00  (FREE)  -1  BULKD Layer 63
 1.709500e+03
INTERNAL  1.000000e+00  (FREE)  -1  BULKD Layer 64
 1.709500e+03
INTERNAL  1.000000e+00  (FREE)  -1  BULKD Layer 65
 1.709500e+03
INTERNAL  1.000000e+00  (FREE)  -1  BULKD Layer 66
 1.709500e+03
INTERNAL  1.000000e+00  (FREE)  -1  BULKD Layer 67
 1.709500e+03
INTERNAL  1.000000e+00  (FREE)  -1  BULKD Layer 68
 1.709500e+03
INTERNAL  1.000000e+00  (FREE)  -1  BULKD Layer 69
 1.709500e+03
INTERNAL  1.000000e+00  (FREE)  -1  BULKD Layer 70
 1.709500e+03
INTERNAL  1.000000e+00  (FREE)  -1  BULKD Layer 71
 1.709500e+03
INTERNAL  1.000000e+00  (FREE)  -1  BULKD Layer 72
 1.709500e+03
INTERNAL  1.000000e+00  (FREE)  -1  BULKD Layer 73
 1.709500e+03
INTERNAL  1.000000e+00  (FREE)  -1  BULKD Layer 74
 1.709500e+03
INTERNAL  1.000000e+00  (FREE)  -1  BULKD Layer 75
 1.709500e+03
INTERNAL  1.000000e+00  (FREE)  -1  BULKD Layer 76
 1.709500e+03
INTERNAL  1.000000e+00  (FREE)  -1  BULKD Layer 77
 1.709500e+03
INTERNAL  1.000000e+00  (FREE)  -1  BULKD Layer 78
 1.709500e+03
INTERNAL  1.000000e+00  (FREE)  -1  BULKD Layer 79
 1.709500e+03
INTERNAL  1.000000e+00  (FREE)  -1  BULKD Layer 80
 1.709500e+03
INTERNAL  1.000000e+00  (FREE)  -1  BULKD Layer 81
 1.709500e+03
INTERNAL  1.000000e+00  (FREE)  -1  BULKD Layer 82
 1.709500e+03
INTERNAL  1.000000e+00  (FREE)  -1  BULKD Layer 83
 1.709500e+03
INTERNAL  1.000000e+00  (FREE)  -1  BULKD Layer 84
 1.709500e+03
INTERNAL  1.000000e+00  (FREE)  -1  BULKD Layer 85
 1.709500e+03
INTERNAL  1.000000e+00  (FREE)  -1  BULKD Layer 86
 1.709500e+03
INTERNAL  1.000000e+00  (FREE)  -1  BULKD Layer 87
 1.709500e+03
INTERNAL  1.000000e+00  (FREE)  -1  BULKD Layer 88
 1.709500e+03
INTERNAL  1.000000e+00  (FREE)  -1  BULKD Layer 89
 1.709500e+03
INTERNAL  1.000000e+00  (FREE)  -1  BULKD Layer 90
 1.709500e+03
INTERNAL  1.000000e+00  (FREE)  -1  BULKD Layer 91
 1.709500e+03
INTERNAL  1.000000e+00  (FREE)  -1  BULKD Layer 92
 1.709500e+03
INTERNAL  1.000000e+00  (FREE)  -1  BULKD Layer 93
 1.709500e+03
INTERNAL  1.000000e+00  (FREE)  -1  BULKD Layer 94
 1.709500e+03
INTERNAL  1.000000e+00  (FREE)  -1  BULKD Layer 95
 1.709500e+03
INTERNAL  1.000000e+00  (FREE)  -1  BULKD Layer 96
 1.709500e+03
INTERNAL  1.000000e+00  (FREE)  -1  BULKD Layer 97
 1.709500e+03
INTERNAL  1.000000e+00  (FREE)  -1  BULKD Layer 98
 1.709500e+03
INTERNAL  1.000000e+00  (FREE)  -1  BULKD Layer 99
 1.709500e+03
INTERNAL  1.000000e+00  (FREE)  -1  BULKD Layer 100
 1.709500e+03
INTERNAL  1.000000e+00  (FREE)  -1  BULKD Layer 101
 1.709500e+03
INTERNAL  1.000000e+00  (FREE)  -1  BULKD Layer 102
 1.709500e+03
INTERNAL  1.000000e+00  (FREE)  -1  BULKD Layer 103
 1.709500e+03
INTERNAL  1.000000e+00  (FREE)  -1  BULKD Layer 104
 1.709500e+03
INTERNAL  1.000000e+00  (FREE)  -1  BULKD Layer 105
 1.709500e+03
INTERNAL  1.000000e+00  (FREE)  -1  BULKD Layer 106
 1.709500e+03
INTERNAL  1.000000e+00  (FREE)  -1  BULKD Layer 107
 1.709500e+03
INTERNAL  1.000000e+00  (FREE)  -1  BULKD Layer 108
 1.709500e+03
INTERNAL  1.000000e+00  (FREE)  -1  BULKD Layer 109
 1.709500e+03
INTERNAL  1.000000e+00  (FREE)  -1  BULKD Layer 110
 1.709500e+03
INTERNAL  1.000000e+00  (FREE)  -1  BULKD Layer 111
 1.709500e+03
INTERNAL  1.000000e+00  (FREE)  -1  BULKD Layer 112
 1.709500e+03
INTERNAL  1.000000e+00  (FREE)  -1  BULKD Layer 113
 1.709500e+03
INTERNAL  1.000000e+00  (FREE)  -1  BULKD Layer 114
 1.709500e+03
INTERNAL  1.000000e+00  (FREE)  -1  BULKD Layer 115
 1.709500e+03
INTERNAL  1.000000e+00  (FREE)  -1  BULKD Layer 116
 1.709500e+03
INTERNAL  1.000000e+00  (FREE)  -1  BULKD Layer 117
 1.709500e+03
INTERNAL  1.000000e+00  (FREE)  -1  BULKD Layer 118
 1.709500e+03
INTERNAL  1.000000e+00  (FREE)  -1  BULKD Layer 119
 1.709500e+03
INTERNAL  1.000000e+00  (FREE)  -1  BULKD Layer 120
 1.709500e+03
INTERNAL  1.000000e+00  (FREE)  -1  HTCAPS Layer 1
 8.000000e+02
INTERNAL  1.000000e+00  (FREE)  -1  HTCAPS Layer 2
 8.000000e+02
INTERNAL  1.000000e+00  (FREE)  -1  HTCAPS Layer 3
 8.000000e+02
INTERNAL  1.000000e+00  (FREE)  -1  HTCAPS Layer 4
 8.000000e+02
INTERNAL  1.000000e+00  (FREE)  -1  HTCAPS Layer 5
 8.000000e+02
INTERNAL  1.000000e+00  (FREE)  -1  HTCAPS Layer 6
 8.000000e+02
INTERNAL  1.000000e+00  (FREE)  -1  HTCAPS Layer 7
 8.000000e+02
INTERNAL  1.000000e+00  (FREE)  -1  HTCAPS Layer 8
 8.000000e+02
INTERNAL  1.000000e+00  (FREE)  -1  HTCAPS Layer 9
 8.000000e+02
INTERNAL  1.000000e+00  (FREE)  -1  HTCAPS Layer 10
 8.000000e+02
INTERNAL  1.000000e+00  (FREE)  -1  HTCAPS Layer 11
 8.000000e+02
INTERNAL  1.000000e+00  (FREE)  -1  HTCAPS Layer 12
 8.000000e+02
INTERNAL  1.000000e+00  (FREE)  -1  HTCAPS Layer 13
 8.000000e+02
INTERNAL  1.000000e+00  (FREE)  -1  HTCAPS Layer 14
 8.000000e+02
INTERNAL  1.000000e+00  (FREE)  -1  HTCAPS Layer 15
 8.000000e+02
INTERNAL  1.000000e+00  (FREE)  -1  HTCAPS Layer 16
 8.000000e+02
INTERNAL  1.000000e+00  (FREE)  -1  HTCAPS Layer 17
 8.000000e+02
INTERNAL  1.000000e+00  (FREE)  -1  HTCAPS Layer 18
 8.000000e+02
INTERNAL  1.000000e+00  (FREE)  -1  HTCAPS Layer 19
 8.000000e+02
INTERNAL  1.000000e+00  (FREE)  -1  HTCAPS Layer 20
 8.000000e+02
INTERNAL  1.000000e+00  (FREE)  -1  HTCAPS Layer 21
 8.000000e+02
INTERNAL  1.000000e+00  (FREE)  -1  HTCAPS Layer 22
 8.000000e+02
INTERNAL  1.000000e+00  (FREE)  -1  HTCAPS Layer 23
 8.000000e+02
INTERNAL  1.000000e+00  (FREE)  -1  HTCAPS Layer 24
 8.000000e+02
INTERNAL  1.000000e+00  (FREE)  -1  HTCAPS Layer 25
 8.000000e+02
INTERNAL  1.000000e+00  (FREE)  -1  HTCAPS Layer 26
 8.000000e+02
INTERNAL  1.000000e+00  (FREE)  -1  HTCAPS Layer 27
 8.000000e+02
INTERNAL  1.000000e+00  (FREE)  -1  HTCAPS Layer 28
 8.000000e+02
INTERNAL  1.000000e+00  (FREE)  -1  HTCAPS Layer 29
 8.000000e+02
INTERNAL  1.000000e+00  (FREE)  -1  HTCAPS Layer 30
 8.000000e+02
INTERNAL  1.000000e+00  (FREE)  -1  HTCAPS Layer 31
 8.000000e+02
INTERNAL  1.000000e+00  (FREE)  -1  HTCAPS Layer 32
 8.000000e+02
INTERNAL  1.000000e+00  (FREE)  -1  HTCAPS Layer 33
 8.000000e+02
INTERNAL  1.000000e+00  (FREE)  -1  HTCAPS Layer 34
 8.000000e+02
INTERNAL  1.000000e+00  (FREE)  -1  HTCAPS Layer 35
 8.000000e+02
INTERNAL  1.000000e+00  (FREE)  -1  HTCAPS Layer 36
 8.000000e+02
INTERNAL  1.000000e+00  (FREE)  -1  HTCAPS Layer 37
 8.000000e+02
INTERNAL  1.000000e+00  (FREE)  -1  HTCAPS Layer 38
 8.000000e+02
INTERNAL  1.000000e+00  (FREE)  -1  HTCAPS Layer 39
 8.000000e+02
INTERNAL  1.000000e+00  (FREE)  -1  HTCAPS Layer 40
 8.000000e+02
INTERNAL  1.000000e+00  (FREE)  -1  HTCAPS Layer 41
 8.000000e+02
INTERNAL  1.000000e+00  (FREE)  -1  HTCAPS Layer 42
 8.000000e+02
INTERNAL  1.000000e+00  (FREE)  -1  HTCAPS Layer 43
 8.000000e+02
INTERNAL  1.000000e+00  (FREE)  -1  HTCAPS Layer 44
 8.000000e+02
INTERNAL  1.000000e+00  (FREE)  -1  HTCAPS Layer 45
 8.000000e+02
INTERNAL  1.000000e+00  (FREE)  -1  HTCAPS Layer 46
 8.000000e+02
INTERNAL  1.000000e+00  (FREE)  -1  HTCAPS Layer 47
 8.000000e+02
INTERNAL  1.000000e+00  (FREE)  -1  HTCAPS Layer 48
 8.000000e+02
INTERNAL  1.000000e+00  (FREE)  -1  HTCAPS Layer 49
 8.000000e+02
INTERNAL  1.000000e+00  (FREE)  -1  HTCAPS Layer 50
 8.000000e+02
INTERNAL  1.000000e+00  (FREE)  -1  HTCAPS Layer 51
 8.000000e+02
INTERNAL  1.000000e+00  (FREE)  -1  HTCAPS Layer 52
 8.000000e+02
INTERNAL  1.000000e+00  (FREE)  -1  HTCAPS Layer 53
 8.000000e+02
INTERNAL  1.000000e+00  (FREE)  -1  HTCAPS Layer 54
 8.000000e+02
INTERNAL  1.000000e+00  (FREE)  -1  HTCAPS Layer 55
 8.000000e+02
INTERNAL  1.000000e+00  (FREE)  -1  HTCAPS Layer 56
 8.000000e+02
INTERNAL  1.000000e+00  (FREE)  -1  HTCAPS Layer 57
 8.000000e+02
INTERNAL  1.000000e+00  (FREE)  -1  HTCAPS Layer 58
 8.000000e+02
INTERNAL  1.000000e+00  (FREE)  -1  HTCAPS Layer 59
 8.000000e+02
INTERNAL  1.000000e+00  (FREE)  -1  HTCAPS Layer 60
 8.000000e+02
INTERNAL  1.000000e+00  (FREE)  -1  HTCAPS Layer 61
 8.000000e+02
INTERNAL  1.000000e+00  (FREE)  -1  HTCAPS Layer 62
 8.000000e+02
INTERNAL  1.000000e+00  (FREE)  -1  HTCAPS Layer 63
 8.000000e+02
INTERNAL  1.000000e+00  (FREE)  -1  HTCAPS Layer 64
 8.000000e+02
INTERNAL  1.000000e+00  (FREE)  -1  HTCAPS Layer 65
 8.000000e+02
INTERNAL  1.000000e+00  (FREE)  -1  HTCAPS Layer 66
 8.000000e+02
INTERNAL  1.000000e+00  (FREE)  -1  HTCAPS Layer 67
 8.000000e+02
INTERNAL  1.000000e+00  (FREE)  -1  HTCAPS Layer 68
 8.000000e+02
INTERNAL  1.000000e+00  (FREE)  -1  HTCAPS Layer 69
 8.000000e+02
INTERNAL  1.000000e+00  (FREE)  -1  HTCAPS Layer 70
 8.000000e+02
INTERNAL  1.000000e+00  (FREE)  -1  HTCAPS Layer 71
 8.000000e+02
INTERNAL  1.000000e+00  (FREE)  -1  HTCAPS Layer 72
 8.000000e+02
INTERNAL  1.000000e+00  (FREE)  -1  HTCAPS Layer 73
 8.000000e+02
INTERNAL  1.000000e+00  (FREE)  -1  HTCAPS Layer 74
 8.000000e+02
INTERNAL  1.000000e+00  (FREE)  -1  HTCAPS Layer 75
 8.000000e+02
INTERNAL  1.000000e+00  (FREE)  -1  HTCAPS Layer 76
 8.000000e+02
INTERNAL  1.000000e+00  (FREE)  -1  HTCAPS Layer 77
 8.000000e+02
INTERNAL  1.000000e+00  (FREE)  -1  HTCAPS Layer 78
 8.000000e+02
INTERNAL  1.000000e+00  (FREE)  -1  HTCAPS Layer 79
 8.000000e+02
INTERNAL  1.000000e+00  (FREE)  -1  HTCAPS Layer 80
 8.000000e+02
INTERNAL  1.000000e+00  (FREE)  -1  HTCAPS Layer 81
 8.000000e+02
INTERNAL  1.000000e+00  (FREE)  -1  HTCAPS Layer 82
 8.000000e+02
INTERNAL  1.000000e+00  (FREE)  -1  HTCAPS Layer 83
 8.000000e+02
INTERNAL  1.000000e+00  (FREE)  -1  HTCAPS Layer 84
 8.000000e+02
INTERNAL  1.000000e+00  (FREE)  -1  HTCAPS Layer 85
 8.000000e+02
INTERNAL  1.000000e+00  (FREE)  -1  HTCAPS Layer 86
 8.000000e+02
INTERNAL  1.000000e+00  (FREE)  -1  HTCAPS Layer 87
 8.000000e+02
INTERNAL  1.000000e+00  (FREE)  -1  HTCAPS Layer 88
 8.000000e+02
INTERNAL  1.000000e+00  (FREE)  -1  HTCAPS Layer 89
 8.000000e+02
INTERNAL  1.000000e+00  (FREE)  -1  HTCAPS Layer 90
 8.000000e+02
INTERNAL  1.000000e+00  (FREE)  -1  HTCAPS Layer 91
 8.000000e+02
INTERNAL  1.000000e+00  (FREE)  -1  HTCAPS Layer 92
 8.000000e+02
INTERNAL  1.000000e+00  (FREE)  -1  HTCAPS Layer 93
 8.000000e+02
INTERNAL  1.000000e+00  (FREE)  -1  HTCAPS Layer 94
 8.000000e+02
INTERNAL  1.000000e+00  (FREE)  -1  HTCAPS Layer 95
 8.000000e+02
INTERNAL  1.000000e+00  (FREE)  -1  HTCAPS Layer 96
 8.000000e+02
INTERNAL  1.000000e+00  (FREE)  -1  HTCAPS Layer 97
 8.000000e+02
INTERNAL  1.000000e+00  (FREE)  -1  HTCAPS Layer 98
 8.000000e+02
INTERNAL  1.000000e+00  (FREE)  -1  HTCAPS Layer 99
 8.000000e+02
INTERNAL  1.000000e+00  (FREE)  -1  HTCAPS Layer 100
 8.000000e+02
INTERNAL  1.000000e+00  (FREE)  -1  HTCAPS Layer 101
 8.000000e+02
INTERNAL  1.000000e+00  (FREE)  -1  HTCAPS Layer 102
 8.000000e+02
INTERNAL  1.000000e+00  (FREE)  -1  HTCAPS Layer 103
 8.000000e+02
INTERNAL  1.000000e+00  (FREE)  -1  HTCAPS Layer 104
 8.000000e+02
INTERNAL  1.000000e+00  (FREE)  -1  HTCAPS Layer 105
 8.000000e+02
INTERNAL  1.000000e+00  (FREE)  -1  HTCAPS Layer 106
 8.000000e+02
INTERNAL  1.000000e+00  (FREE)  -1  HTCAPS Layer 107
 8.000000e+02
INTERNAL  1.000000e+00  (FREE)  -1  HTCAPS Layer 108
 8.000000e+02
INTERNAL  1.000000e+00  (FREE)  -1  HTCAPS Layer 109
 8.000000e+02
INTERNAL  1.000000e+00  (FREE)  -1  HTCAPS Layer 110
 8.000000e+02
INTERNAL  1.000000e+00  (FREE)  -1  HTCAPS Layer 111
 8.000000e+02
INTERNAL  1.000000e+00  (FREE)  -1  HTCAPS Layer 112
 8.000000e+02
INTERNAL  1.000000e+00  (FREE)  -1  HTCAPS Layer 113
 8.000000e+02
INTERNAL  1.000000e+00  (FREE)  -1  HTCAPS Layer 114
 8.000000e+02
INTERNAL  1.000000e+00  (FREE)  -1  HTCAPS Layer 115
 8.000000e+02
INTERNAL  1.000000e+00  (FREE)  -1  HTCAPS Layer 116
 8.000000e+02
INTERNAL  1.000000e+00  (FREE)  -1  HTCAPS Layer 117
 8.000000e+02
INTERNAL  1.000000e+00  (FREE)  -1  HTCAPS Layer 118
 8.000000e+02
INTERNAL  1.000000e+00  (FREE)  -1  HTCAPS Layer 119
 8.000000e+02
INTERNAL  1.000000e+00  (FREE)  -1  HTCAPS Layer 120
 8.000000e+02
INTERNAL  1.000000e+00  (FREE)  -1  HTCONDS Layer 1
 2.000000e+00
INTERNAL  1.000000e+00  (FREE)  -1  HTCONDS Layer 2
 2.000000e+00
INTERNAL  1.000000e+00  (FREE)  -1  HTCONDS Layer 3
 2.000000e+00
INTERNAL  1.000000e+00  (FREE)  -1  HTCONDS Layer 4
 2.000000e+00
INTERNAL  1.000000e+00  (FREE)  -1  HTCONDS Layer 5
 2.000000e+00
INTERNAL  1.000000e+00  (FREE)  -1  HTCONDS Layer 6
 2.000000e+00
INTERNAL  1.000000e+00  (FREE)  -1  HTCONDS Layer 7
 2.000000e+00
INTERNAL  1.000000e+00  (FREE)  -1  HTCONDS Layer 8
 2.000000e+00
INTERNAL  1.000000e+00  (FREE)  -1  HTCONDS Layer 9
 2.000000e+00
INTERNAL  1.000000e+00  (FREE)  -1  HTCONDS Layer 10
 2.000000e+00
INTERNAL  1.000000e+00  (FREE)  -1  HTCONDS Layer 11
 2.000000e+00
INTERNAL  1.000000e+00  (FREE)  -1  HTCONDS Layer 12
 2.000000e+00
INTERNAL  1.000000e+00  (FREE)  -1  HTCONDS Layer 13
 2.000000e+00
INTERNAL  1.000000e+00  (FREE)  -1  HTCONDS Layer 14
 2.000000e+00
INTERNAL  1.000000e+00  (FREE)  -1  HTCONDS Layer 15
 2.000000e+00
INTERNAL  1.000000e+00  (FREE)  -1  HTCONDS Layer 16
 2.000000e+00
INTERNAL  1.000000e+00  (FREE)  -1  HTCONDS Layer 17
 2.000000e+00
INTERNAL  1.000000e+00  (FREE)  -1  HTCONDS Layer 18
 2.000000e+00
INTERNAL  1.000000e+00  (FREE)  -1  HTCONDS Layer 19
 2.000000e+00
INTERNAL  1.000000e+00  (FREE)  -1  HTCONDS Layer 20
 2.000000e+00
INTERNAL  1.000000e+00  (FREE)  -1  HTCONDS Layer 21
 2.000000e+00
INTERNAL  1.000000e+00  (FREE)  -1  HTCONDS Layer 22
 2.000000e+00
INTERNAL  1.000000e+00  (FREE)  -1  HTCONDS Layer 23
 2.000000e+00
INTERNAL  1.000000e+00  (FREE)  -1  HTCONDS Layer 24
 2.000000e+00
INTERNAL  1.000000e+00  (FREE)  -1  HTCONDS Layer 25
 2.000000e+00
INTERNAL  1.000000e+00  (FREE)  -1  HTCONDS Layer 26
 2.000000e+00
INTERNAL  1.000000e+00  (FREE)  -1  HTCONDS Layer 27
 2.000000e+00
INTERNAL  1.000000e+00  (FREE)  -1  HTCONDS Layer 28
 2.000000e+00
INTERNAL  1.000000e+00  (FREE)  -1  HTCONDS Layer 29
 2.000000e+00
INTERNAL  1.000000e+00  (FREE)  -1  HTCONDS Layer 30
 2.000000e+00
INTERNAL  1.000000e+00  (FREE)  -1  HTCONDS Layer 31
 2.000000e+00
INTERNAL  1.000000e+00  (FREE)  -1  HTCONDS Layer 32
 2.000000e+00
INTERNAL  1.000000e+00  (FREE)  -1  HTCONDS Layer 33
 2.000000e+00
INTERNAL  1.000000e+00  (FREE)  -1  HTCONDS Layer 34
 2.000000e+00
INTERNAL  1.000000e+00  (FREE)  -1  HTCONDS Layer 35
 2.000000e+00
INTERNAL  1.000000e+00  (FREE)  -1  HTCONDS Layer 36
 2.000000e+00
INTERNAL  1.000000e+00  (FREE)  -1  HTCONDS Layer 37
 2.000000e+00
INTERNAL  1.000000e+00  (FREE)  -1  HTCONDS Layer 38
 2.000000e+00
INTERNAL  1.000000e+00  (FREE)  -1  HTCONDS Layer 39
 2.000000e+00
INTERNAL  1.000000e+00  (FREE)  -1  HTCONDS Layer 40
 2.000000e+00
INTERNAL  1.000000e+00  (FREE)  -1  HTCONDS Layer 41
 2.000000e+00
INTERNAL  1.000000e+00  (FREE)  -1  HTCONDS Layer 42
 2.000000e+00
INTERNAL  1.000000e+00  (FREE)  -1  HTCONDS Layer 43
 2.000000e+00
INTERNAL  1.000000e+00  (FREE)  -1  HTCONDS Layer 44
 2.000000e+00
INTERNAL  1.000000e+00  (FREE)  -1  HTCONDS Layer 45
 2.000000e+00
INTERNAL  1.000000e+00  (FREE)  -1  HTCONDS Layer 46
 2.000000e+00
INTERNAL  1.000000e+00  (FREE)  -1  HTCONDS Layer 47
 2.000000e+00
INTERNAL  1.000000e+00  (FREE)  -1  HTCONDS Layer 48
 2.000000e+00
INTERNAL  1.000000e+00  (FREE)  -1  HTCONDS Layer 49
 2.000000e+00
INTERNAL  1.000000e+00  (FREE)  -1  HTCONDS Layer 50
 2.000000e+00
INTERNAL  1.000000e+00  (FREE)  -1  HTCONDS Layer 51
 2.000000e+00
INTERNAL  1.000000e+00  (FREE)  -1  HTCONDS Layer 52
 2.000000e+00
INTERNAL  1.000000e+00  (FREE)  -1  HTCONDS Layer 53
 2.000000e+00
INTERNAL  1.000000e+00  (FREE)  -1  HTCONDS Layer 54
 2.000000e+00
INTERNAL  1.000000e+00  (FREE)  -1  HTCONDS Layer 55
 2.000000e+00
INTERNAL  1.000000e+00  (FREE)  -1  HTCONDS Layer 56
 2.000000e+00
INTERNAL  1.000000e+00  (FREE)  -1  HTCONDS Layer 57
 2.000000e+00
INTERNAL  1.000000e+00  (FREE)  -1  HTCONDS Layer 58
 2.000000e+00
INTERNAL  1.000000e+00  (FREE)  -1  HTCONDS Layer 59
 2.000000e+00
INTERNAL  1.000000e+00  (FREE)  -1  HTCONDS Layer 60
 2.000000e+00
INTERNAL  1.000000e+00  (FREE)  -1  HTCONDS Layer 61
 2.000000e+00
INTERNAL  1.000000e+00  (FREE)  -1  HTCONDS Layer 62
 2.000000e+00
INTERNAL  1.000000e+00  (FREE)  -1  HTCONDS Layer 63
 2.000000e+00
INTERNAL  1.000000e+00  (FREE)  -1  HTCONDS Layer 64
 2.000000e+00
INTERNAL  1.000000e+00  (FREE)  -1  HTCONDS Layer 65
 2.000000e+00
INTERNAL  1.000000e+00  (FREE)  -1  HTCONDS Layer 66
 2.000000e+00
INTERNAL  1.000000e+00  (FREE)  -1  HTCONDS Layer 67
 2.000000e+00
INTERNAL  1.000000e+00  (FREE)  -1  HTCONDS Layer 68
 2.000000e+00
INTERNAL  1.000000e+00  (FREE)  -1  HTCONDS Layer 69
 2.000000e+00
INTERNAL  1.000000e+00  (FREE)  -1  HTCONDS Layer 70
 2.000000e+00
INTERNAL  1.000000e+00  (FREE)  -1  HTCONDS Layer 71
 2.000000e+00
INTERNAL  1.000000e+00  (FREE)  -1  HTCONDS Layer 72
 2.000000e+00
INTERNAL  1.000000e+00  (FREE)  -1  HTCONDS Layer 73
 2.000000e+00
INTERNAL  1.000000e+00  (FREE)  -1  HTCONDS Layer 74
 2.000000e+00
INTERNAL  1.000000e+00  (FREE)  -1  HTCONDS Layer 75