# MODFLOW-USGs Prescribed Concentration (PCB) Package
 1 0
 1   0    Stress Period 1
 1  1  1.000000e+01
 1   0    Stress Period 2
 1  1  1.052264e+01
 1   0    Stress Period 3
 1  1  1.103956e+01
 1   0    Stress Period 4
 1  1  1.154508e+01
 1   0    Stress Period 5
 1  1  1.203368e+01
 1   0    Stress Period 6
 1  1  1.250000e+01
 1   0    Stress Period 7
 1  1  1.293893e+01
 1   0    Stress Period 8
 1  1  1.334565e+01
 1   0    Stress Period 9
 1  1  1.371572e+01
 1   0    Stress Period 10
 1  1  1.404508e+01
 1   0    Stress Period 11
 1  1  1.433013e+01
 1   0    Stress Period 12
 1  1  1.456773e+01
 1   0    Stress Period 13
 1  1  1.475528e+01
 1   0    Stress Period 14
 1  1  1.489074e+01
 1   0    Stress Period 15
 1  1  1.497261e+01
 1   0    Stress Period 16
 1  1  1.500000e+01
 1   0    Stress Period 17
 1  1  1.497261e+01
 1   0    Stress Period 18
 1  1  1.489074e+01
 1   0    Stress Period 19
 1  1  1.475528e+01
 1   0    Stress Period 20
 1  1  1.456773e+01
 1   0    Stress Period 21
 1  1  1.433013e+01
 1   0    Stress Period 22
 1  1  1.404508e+01
 1   0    Stress Period 23
 1  1  1.371572e+01
 1   0    Stress Period 24
 1  1  1.334565e+01
 1   0    Stress Period 25
 1  1  1.293893e+01
 1   0    Stress Period 26
 1  1  1.250000e+01
 1   0    Stress Period 27
 1  1  1.203368e+01
 1   0    Stress Period 28
 1  1  1.154508e+01
 1   0    Stress Period 29
 1  1  1.103956e+01
 1   0    Stress Period 30
 1  1  1.052264e+01
 1   0    Stress Period 31
 1  1  1.000000e+01
 1   0    Stress Period 32
 1  1  9.477358e+00
 1   0    Stress Period 33
 1  1  8.960442e+00
 1   0    Stress Period 34
 1  1  8.454915e+00
 1   0    Stress Period 35
 1  1  7.966317e+00
 1   0    Stress Period 36
 1  1  7.500000e+00
 1   0    Stress Period 37
 1  1  7.061074e+00
 1   0    Stress Period 38
 1  1  6.654347e+00
 1   0    Stress Period 39
 1  1  6.284276e+00
 1   0    Stress Period 40
 1  1  5.954915e+00
 1   0    Stress Period 41
 1  1  5.669873e+00
 1   0    Stress Period 42
 1  1  5.432273e+00
 1   0    Stress Period 43
 1  1  5.244717e+00
 1   0    Stress Period 44
 1  1  5.109262e+00
 1   0    Stress Period 45
 1  1  5.027391e+00
 1   0    Stress Period 46
 1  1  5.000000e+00
 1   0    Stress Period 47
 1  1  5.027391e+00
 1   0    Stress Period 48
 1  1  5.109262e+00
 1   0    Stress Period 49
 1  1  5.244717e+00
 1   0    Stress Period 50
 1  1  5.432273e+00
 1   0    Stress Period 51
 1  1  5.669873e+00
 1   0    Stress Period 52
 1  1  5.954915e+00
 1   0    Stress Period 53
 1  1  6.284276e+00
 1   0    Stress Period 54
 1  1  6.654347e+00
 1   0    Stress Period 55
 1  1  7.061074e+00
 1   0    Stress Period 56
 1  1  7.500000e+00
 1   0    Stress Period 57
 1  1  7.966317e+00
 1   0    Stress Period 58
 1  1  8.454915e+00
 1   0    Stress Period 59
 1  1  8.960442e+00
 1   0    Stress Period 60
 1  1  9.477358e+00
 1   0    Stress Period 61
 1  1  1.000000e+01
 1   0    Stress Period 62
 1  1  1.052264e+01
 1   0    Stress Period 63
 1  1  1.103956e+01
 1   0    Stress Period 64
 1  1  1.154508e+01
 1   0    Stress Period 65
 1  1  1.203368e+01
 1   0    Stress Period 66
 1  1  1.250000e+01
 1   0    Stress Period 67
 1  1  1.293893e+01
 1   0    Stress Period 68
 1  1  1.334565e+01
 1   0    Stress Period 69
 1  1  1.371572e+01
 1   0    Stress Period 70
 1  1  1.404508e+01
 1   0    Stress Period 71
 1  1  1.433013e+01
 1   0    Stress Period 72
 1  1  1.456773e+01
 1   0    Stress Period 73
 1  1  1.475528e+01
 1   0    Stress Period 74
 1  1  1.489074e+01
 1   0    Stress Period 75
 1  1  1.497261e+01
 1   0    Stress Period 76
 1  1  1.500000e+01
 1   0    Stress Period 77
 1  1  1.497261e+01
 1   0    Stress Period 78
 1  1  1.489074e+01
 1   0    Stress Period 79
 1  1  1.475528e+01
 1   0    Stress Period 80
 1  1  1.456773e+01
 1   0    Stress Period 81
 1  1  1.433013e+01
 1   0    Stress Period 82
 1  1  1.404508e+01
 1   0    Stress Period 83
 1  1  1.371572e+01
 1   0    Stress Period 84
 1  1  1.334565e+01
 1   0    Stress Period 85
 1  1  1.293893e+01
 1   0    Stress Period 86
 1  1  1.250000e+01
 1   0    Stress Period 87
 1  1  1.203368e+01
 1   0    Stress Period 88
 1  1  1.154508e+01
 1   0    Stress Period 89
 1  1  1.103956e+01
 1   0    Stress Period 90
 1  1  1.052264e+01
 1   0    Stress Period 91
 1  1  1.000000e+01
 1   0    Stress Period 92
 1  1  9.477358e+00
 1   0    Stress Period 93
 1  1  8.960442e+00
 1   0    Stress Period 94
 1  1  8.454915e+00
 1   0    Stress Period 95
 1  1  7.966317e+00
 1   0    Stress Period 96
 1  1  7.500000e+00
 1   0    Stress Period 97
 1  1  7.061074e+00
 1   0    Stress Period 98
 1  1  6.654347e+00
 1   0    Stress Period 99
 1  1  6.284276e+00
 1   0    Stress Period 100
 1  1  5.954915e+00
 1   0    Stress Period 101
 1  1  5.669873e+00
 1   0    Stress Period 102
 1  1  5.432273e+00
 1   0    Stress Period 103
 1  1  5.244717e+00
 1   0    Stress Period 104
 1  1  5.109262e+00
 1   0    Stress Period 105
 1  1  5.027391e+00
 1   0    Stress Period 106
 1  1  5.000000e+00
 1   0    Stress Period 107
 1  1  5.027391e+00
 1   0    Stress Period 108
 1  1  5.109262e+00
 1   0    Stress Period 109
 1  1  5.244717e+00
 1   0    Stress Period 110
 1  1  5.432273e+00
 1   0    Stress Period 111
 1  1  5.669873e+00
 1   0    Stress Period 112
 1  1  5.954915e+00
 1   0    Stress Period 113
 1  1  6.284276e+00
 1   0    Stress Period 114
 1  1  6.654347e+00
 1   0    Stress Period 115
 1  1  7.061074e+00
 1   0    Stress Period 116
 1  1  7.500000e+00
 1   0    Stress Period 117
 1  1  7.966317e+00
 1   0    Stress Period 118
 1  1  8.454915e+00
 1   0    Stress Period 119
 1  1  8.960442e+00
 1   0    Stress Period 120
 1  1  9.477358e+00
 1   0    Stress Period 121
 1  1  1.000000e+01
 1   0    Stress Period 122
 1  1  1.052264e+01
 1   0    Stress Period 123
 1  1  1.103956e+01
 1   0    Stress Period 124
 1  1  1.154508e+01
 1   0    Stress Period 125
 1  1  1.203368e+01
 1   0    Stress Period 126
 1  1  1.250000e+01
 1   0    Stress Period 127
 1  1  1.293893e+01
 1   0    Stress Period 128
 1  1  1.334565e+01
 1   0    Stress Period 129
 1  1  1.371572e+01
 1   0    Stress Period 130
 1  1  1.404508e+01
 1   0    Stress Period 131
 1  1  1.433013e+01
 1   0    Stress Period 132
 1  1  1.456773e+01
 1   0    Stress Period 133
 1  1  1.475528e+01
 1   0    Stress Period 134
 1  1  1.489074e+01
 1   0    Stress Period 135
 1  1  1.497261e+01
 1   0    Stress Period 136
 1  1  1.500000e+01
 1   0    Stress Period 137
 1  1  1.497261e+01
 1   0    Stress Period 138
 1  1  1.489074e+01
 1   0    Stress Period 139
 1  1  1.475528e+01
 1   0    Stress Period 140
 1  1  1.456773e+01
 1   0    Stress Period 141
 1  1  1.433013e+01
 1   0    Stress Period 142
 1  1  1.404508e+01
 1   0    Stress Period 143
 1  1  1.371572e+01
 1   0    Stress Period 144
 1  1  1.334565e+01
 1   0    Stress Period 145
 1  1  1.293893e+01
 1   0    Stress Period 146
 1  1  1.250000e+01
 1   0    Stress Period 147
 1  1  1.203368e+01
 1   0    Stress Period 148
 1  1  1.154508e+01
 1   0    Stress Period 149
 1  1  1.103956e+01
 1   0    Stress Period 150
 1  1  1.052264e+01
 1   0    Stress Period 151
 1  1  1.000000e+01
 1   0    Stress Period 152
 1  1  9.477358e+00
 1   0    Stress Period 153
 1  1  8.960442e+00
 1   0    Stress Period 154
 1  1  8.454915e+00
 1   0    Stress Period 155
 1  1  7.966317e+00
 1   0    Stress Period 156
 1  1  7.500000e+00
 1   0    Stress Period 157
 1  1  7.061074e+00
 1   0    Stress Period 158
 1  1  6.654347e+00
 1   0    Stress Period 159
 1  1  6.284276e+00
 1   0    Stress Period 160
 1  1  5.954915e+00
 1   0    Stress Period 161
 1  1  5.669873e+00
 1   0    Stress Period 162
 1  1  5.432273e+00
 1   0    Stress Period 163
 1  1  5.244717e+00
 1   0    Stress Period 164
 1  1  5.109262e+00
 1   0    Stress Period 165
 1  1  5.027391e+00
 1   0    Stress Period 166
 1  1  5.000000e+00
 1   0    Stress Period 167
 1  1  5.027391e+00
 1   0    Stress Period 168
 1  1  5.109262e+00
 1   0    Stress Period 169
 1  1  5.244717e+00
 1   0    Stress Period 170
 1  1  5.432273e+00
 1   0    Stress Period 171
 1  1  5.669873e+00
 1   0    Stress Period 172
 1  1  5.954915e+00
 1   0    Stress Period 173
 1  1  6.284276e+00
 1   0    Stress Period 174
 1  1  6.654347e+00
 1   0    Stress Period 175
 1  1  7.061074e+00
 1   0    Stress Period 176
 1  1  7.500000e+00
 1   0    Stress Period 177
 1  1  7.966317e+00
 1   0    Stress Period 178
 1  1  8.454915e+00
 1   0    Stress Period 179
 1  1  8.960442e+00
 1   0    Stress Period 180
 1  1  9.477358e+00
 1   0    Stress Period 181
 1  1  1.000000e+01
 1   0    Stress Period 182
 1  1  1.052264e+01
 1   0    Stress Period 183
 1  1  1.103956e+01
 1   0    Stress Period 184
 1  1  1.154508e+01
 1   0    Stress Period 185
 1  1  1.203368e+01
 1   0    Stress Period 186
 1  1  1.250000e+01
 1   0    Stress Period 187
 1  1  1.293893e+01
 1   0    Stress Period 188
 1  1  1.334565e+01
 1   0    Stress Period 189
 1  1  1.371572e+01
 1   0    Stress Period 190
 1  1  1.404508e+01
 1   0    Stress Period 191
 1  1  1.433013e+01
 1   0    Stress Period 192
 1  1  1.456773e+01
 1   0    Stress Period 193
 1  1  1.475528e+01
 1   0    Stress Period 194
 1  1  1.489074e+01
 1   0    Stress Period 195
 1  1  1.497261e+01
 1   0    Stress Period 196
 1  1  1.500000e+01
 1   0    Stress Period 197
 1  1  1.497261e+01
 1   0    Stress Period 198
 1  1  1.489074e+01
 1   0    Stress Period 199
 1  1  1.475528e+01
 1   0    Stress Period 200
 1  1  1.456773e+01
 1   0    Stress Period 201
 1  1  1.433013e+01
 1   0    Stress Period 202
 1  1  1.404508e+01
 1   0    Stress Period 203
 1  1  1.371572e+01
 1   0    Stress Period 204
 1  1  1.334565e+01
 1   0    Stress Period 205
 1  1  1.293893e+01
 1   0    Stress Period 206
 1  1  1.250000e+01
 1   0    Stress Period 207
 1  1  1.203368e+01
 1   0    Stress Period 208
 1  1  1.154508e+01
 1   0    Stress Period 209
 1  1  1.103956e+01
 1   0    Stress Period 210
 1  1  1.052264e+01
 1   0    Stress Period 211
 1  1  1.000000e+01
 1   0    Stress Period 212
 1  1  9.477358e+00
 1   0    Stress Period 213
 1  1  8.960442e+00
 1   0    Stress Period 214
 1  1  8.454915e+00
 1   0    Stress Period 215
 1  1  7.966317e+00
 1   0    Stress Period 216
 1  1  7.500000e+00
 1   0    Stress Period 217
 1  1  7.061074e+00
 1   0    Stress Period 218
 1  1  6.654347e+00
 1   0    Stress Period 219
 1  1  6.284276e+00
 1   0    Stress Period 220
 1  1  5.954915e+00
 1   0    Stress Period 221
 1  1  5.669873e+00
 1   0    Stress Period 222
 1  1  5.432273e+00
 1   0    Stress Period 223
 1  1  5.244717e+00
 1   0    Stress Period 224
 1  1  5.109262e+00
 1   0    Stress Period 225
 1  1  5.027391e+00
 1   0    Stress Period 226
 1  1  5.000000e+00
 1   0    Stress Period 227
 1  1  5.027391e+00
 1   0    Stress Period 228
 1  1  5.109262e+00
 1   0    Stress Period 229
 1  1  5.244717e+00
 1   0    Stress Period 230
 1  1  5.432273e+00
 1   0    Stress Period 231
 1  1  5.669873e+00
 1   0    Stress Period 232
 1  1  5.954915e+00
 1   0    Stress Period 233
 1  1  6.284276e+00
 1   0    Stress Period 234
 1  1  6.654347e+00
 1   0    Stress Period 235
 1  1  7.061074e+00
 1   0    Stress Period 236
 1  1  7.500000e+00
 1   0    Stress Period 237
 1  1  7.966317e+00
 1   0    Stress Period 238
 1  1  8.454915e+00
 1   0    Stress Period 239
 1  1  8.960442e+00
 1   0    Stress Period 240
 1  1  9.477358e+00
 1   0    Stress Period 241
 1  1  1.000000e+01
 1   0    Stress Period 242
 1  1  1.052264e+01
 1   0    Stress Period 243
 1  1  1.103956e+01
 1   0    Stress Period 244
 1  1  1.154508e+01
 1   0    Stress Period 245
 1  1  1.203368e+01
 1   0    Stress Period 246
 1  1  1.250000e+01
 1   0    Stress Period 247
 1  1  1.293893e+01
 1   0    Stress Period 248
 1  1  1.334565e+01
 1   0    Stress Period 249
 1  1  1.371572e+01
 1   0    Stress Period 250
 1  1  1.404508e+01
 1   0    Stress Period 251
 1  1  1.433013e+01
 1   0    Stress Period 252
 1  1  1.456773e+01
 1   0    Stress Period 253
 1  1  1.475528e+01
 1   0    Stress Period 254
 1  1  1.489074e+01
 1   0    Stress Period 255
 1  1  1.497261e+01
 1   0    Stress Period 256
 1  1  1.500000e+01
 1   0    Stress Period 257
 1  1  1.497261e+01
 1   0    Stress Period 258
 1  1  1.489074e+01
 1   0    Stress Period 259
 1  1  1.475528e+01
 1   0    Stress Period 260
 1  1  1.456773e+01
 1   0    Stress Period 261
 1  1  1.433013e+01
 1   0    Stress Period 262
 1  1  1.404508e+01
 1   0    Stress Period 263
 1  1  1.371572e+01
 1   0    Stress Period 264
 1  1  1.334565e+01
 1   0    Stress Period 265
 1  1  1.293893e+01
 1   0    Stress Period 266
 1  1  1.250000e+01
 1   0    Stress Period 267
 1  1  1.203368e+01
 1   0    Stress Period 268
 1  1  1.154508e+01
 1   0    Stress Period 269
 1  1  1.103956e+01
 1   0    Stress Period 270
 1  1  1.052264e+01
 1   0    Stress Period 271
 1  1  1.000000e+01
 1   0    Stress Period 272
 1  1  9.477358e+00
 1   0    Stress Period 273
 1  1  8.960442e+00
 1   0    Stress Period 274
 1  1  8.454915e+00
 1   0    Stress Period 275
 1  1  7.966317e+00
 1   0    Stress Period 276
 1  1  7.500000e+00
 1   0    Stress Period 277
 1  1  7.061074e+00
 1   0    Stress Period 278
 1  1  6.654347e+00
 1   0    Stress Period 279
 1  1  6.284276e+00
 1   0    Stress Period 280
 1  1  5.954915e+00
 1   0    Stress Period 281
 1  1  5.669873e+00
 1   0    Stress Period 282
 1  1  5.432273e+00
 1   0    Stress Period 283
 1  1  5.244717e+00
 1   0    Stress Period 284
 1  1  5.109262e+00
 1   0    Stress Period 285
 1  1  5.027391e+00
 1   0    Stress Period 286
 1  1  5.000000e+00
 1   0    Stress Period 287
 1  1  5.027391e+00
 1   0    Stress Period 288
 1  1  5.109262e+00
 1   0    Stress Period 289
 1  1  5.244717e+00
 1   0    Stress Period 290
 1  1  5.432273e+00
 1   0    Stress Period 291
 1  1  5.669873e+00
 1   0    Stress Period 292
 1  1  5.954915e+00
 1   0    Stress Period 293
 1  1  6.284276e+00
 1   0    Stress Period 294
 1  1  6.654347e+00
 1   0    Stress Period 295
 1  1  7.061074e+00
 1   0    Stress Period 296
 1  1  7.500000e+00
 1   0    Stress Period 297
 1  1  7.966317e+00
 1   0    Stress Period 298
 1  1  8.454915e+00
 1   0    Stress Period 299
 1  1  8.960442e+00
 1   0    Stress Period 300
 1  1  9.477358e+00
 1   0    Stress Period 301
 1  1  1.000000e+01
 1   0    Stress Period 302
 1  1  1.052264e+01
 1   0    Stress Period 303
 1  1  1.103956e+01
 1   0    Stress Period 304
 1  1  1.154508e+01
 1   0    Stress Period 305
 1  1  1.203368e+01
 1   0    Stress Period 306
 1  1  1.250000e+01
 1   0    Stress Period 307
 1  1  1.293893e+01
 1   0    Stress Period 308
 1  1  1.334565e+01
 1   0    Stress Period 309
 1  1  1.371572e+01
 1   0    Stress Period 310
 1  1  1.404508e+01
 1   0    Stress Period 311
 1  1  1.433013e+01
 1   0    Stress Period 312
 1  1  1.456773e+01
 1   0    Stress Period 313
 1  1  1.475528e+01
 1   0    Stress Period 314
 1  1  1.489074e+01
 1   0    Stress Period 315
 1  1  1.497261e+01
 1   0    Stress Period 316
 1  1  1.500000e+01
 1   0    Stress Period 317
 1  1  1.497261e+01
 1   0    Stress Period 318
 1  1  1.489074e+01
 1   0    Stress Period 319
 1  1  1.475528e+01
 1   0    Stress Period 320
 1  1  1.456773e+01
 1   0    Stress Period 321
 1  1  1.433013e+01
 1   0    Stress Period 322
 1  1  1.404508e+01
 1   0    Stress Period 323
 1  1  1.371572e+01
 1   0    Stress Period 324
 1  1  1.334565e+01
 1   0    Stress Period 325
 1  1  1.293893e+01
 1   0    Stress Period 326
 1  1  1.250000e+01
 1   0    Stress Period 327
 1  1  1.203368e+01
 1   0    Stress Period 328
 1  1  1.154508e+01
 1   0    Stress Period 329
 1  1  1.103956e+01
 1   0    Stress Period 330
 1  1  1.052264e+01
 1   0    Stress Period 331
 1  1  1.000000e+01
 1   0    Stress Period 332
 1  1  9.477358e+00
 1   0    Stress Period 333
 1  1  8.960442e+00
 1   0    Stress Period 334
 1  1  8.454915e+00
 1   0    Stress Period 335
 1  1  7.966317e+00
 1   0    Stress Period 336
 1  1  7.500000e+00
 1   0    Stress Period 337
 1  1  7.061074e+00
 1   0    Stress Period 338
 1  1  6.654347e+00
 1   0    Stress Period 339
 1  1  6.284276e+00
 1   0    Stress Period 340
 1  1  5.954915e+00
 1   0    Stress Period 341
 1  1  5.669873e+00
 1   0    Stress Period 342
 1  1  5.432273e+00
 1   0    Stress Period 343
 1  1  5.244717e+00
 1   0    Stress Period 344
 1  1  5.109262e+00
 1   0    Stress Period 345
 1  1  5.027391e+00
 1   0    Stress Period 346
 1  1  5.000000e+00
 1   0    Stress Period 347
 1  1  5.027391e+00
 1   0    Stress Period 348
 1  1  5.109262e+00
 1   0    Stress Period 349
 1  1  5.244717e+00
 1   0    Stress Period 350
 1  1  5.432273e+00
 1   0    Stress Period 351
 1  1  5.669873e+00
 1   0    Stress Period 352
 1  1  5.954915e+00
 1   0    Stress Period 353
 1  1  6.284276e+00
 1   0    Stress Period 354
 1  1  6.654347e+00
 1   0    Stress Period 355
 1  1  7.061074e+00
 1   0    Stress Period 356
 1  1  7.500000e+00
 1   0    Stress Period 357
 1  1  7.966317e+00
 1   0    Stress Period 358
 1  1  8.454915e+00
 1   0    Stress Period 359
 1  1  8.960442e+00
 1   0    Stress Period 360
 1  1  9.477358e+00
 1   0    Stress Period 361
 1  1  1.000000e+01
 1   0    Stress Period 362
 1  1  1.052264e+01
 1   0    Stress Period 363
 1  1  1.103956e+01
 1   0    Stress Period 364
 1  1  1.154508e+01
 1   0    Stress Period 365
 1  1  1.203368e+01
 1   0    Stress Period 366
 1  1  1.250000e+01
 1   0    Stress Period 367
 1  1  1.293893e+01
 1   0    Stress Period 368
 1  1  1.334565e+01
 1   0    Stress Period 369
 1  1  1.371572e+01
 1   0    Stress Period 370
 1  1  1.404508e+01
 1   0    Stress Period 371
 1  1  1.433013e+01
 1   0    Stress Period 372
 1  1  1.456773e+01
 1   0    Stress Period 373
 1  1  1.475528e+01
 1   0    Stress Period 374
 1  1  1.489074e+01
 1   0    Stress Period 375
 1  1  1.497261e+01
 1   0    Stress Period 376
 1  1  1.500000e+01
 1   0    Stress Period 377
 1  1  1.497261e+01
 1   0    Stress Period 378
 1  1  1.489074e+01
 1   0    Stress Period 379
 1  1  1.475528e+01
 1   0    Stress Period 380
 1  1  1.456773e+01
 1   0    Stress Period 381
 1  1  1.433013e+01
 1   0    Stress Period 382
 1  1  1.404508e+01
 1   0    Stress Period 383
 1  1  1.371572e+01
 1   0    Stress Period 384
 1  1  1.334565e+01
 1   0    Stress Period 385
 1  1  1.293893e+01
 1   0    Stress Period 386
 1  1  1.250000e+01
 1   0    Stress Period 387
 1  1  1.203368e+01
 1   0    Stress Period 388
 1  1  1.154508e+01
 1   0    Stress Period 389
 1  1  1.103956e+01
 1   0    Stress Period 390
 1  1  1.052264e+01
 1   0    Stress Period 391
 1  1  1.000000e+01
 1   0    Stress Period 392
 1  1  9.477358e+00
 1   0    Stress Period 393
 1  1  8.960442e+00
 1   0    Stress Period 394
 1  1  8.454915e+00
 1   0    Stress Period 395
 1  1  7.966317e+00
 1   0    Stress Period 396
 1  1  7.500000e+00
 1   0    Stress Period 397
 1  1  7.061074e+00
 1   0    Stress Period 398
 1  1  6.654347e+00
 1   0    Stress Period 399
 1  1  6.284276e+00
 1   0    Stress Period 400
 1  1  5.954915e+00
 1   0    Stress Period 401
 1  1  5.669873e+00
 1   0    Stress Period 402
 1  1  5.432273e+00
 1   0    Stress Period 403
 1  1  5.244717e+00
 1   0    Stress Period 404
 1  1  5.109262e+00
 1   0    Stress Period 405
 1  1  5.027391e+00
 1   0    Stress Period 406
 1  1  5.000000e+00
 1   0    Stress Period 407
 1  1  5.027391e+00
 1   0    Stress Period 408
 1  1  5.109262e+00
 1   0    Stress Period 409
 1  1  5.244717e+00
 1   0    Stress Period 410
 1  1  5.432273e+00
 1   0    Stress Period 411
 1  1  5.669873e+00
 1   0    Stress Period 412
 1  1  5.954915e+00
 1   0    Stress Period 413
 1  1  6.284276e+00
 1   0    Stress Period 414
 1  1  6.654347e+00
 1   0    Stress Period 415
 1  1  7.061074e+00
 1   0    Stress Period 416
 1  1  7.500000e+00
 1   0    Stress Period 417
 1  1  7.966317e+00
 1   0    Stress Period 418
 1  1  8.454915e+00
 1   0    Stress Period 419
 1  1  8.960442e+00
 1   0    Stress Period 420
 1  1  9.477358e+00
 1   0    Stress Period 421
 1  1  1.000000e+01
 1   0    Stress Period 422
 1  1  1.052264e+01
 1   0    Stress Period 423
 1  1  1.103956e+01
 1   0    Stress Period 424
 1  1  1.154508e+01
 1   0    Stress Period 425
 1  1  1.203368e+01
 1   0    Stress Period 426
 1  1  1.250000e+01
 1   0    Stress Period 427
 1  1  1.293893e+01
 1   0    Stress Period 428
 1  1  1.334565e+01
 1   0    Stress Period 429
 1  1  1.371572e+01
 1   0    Stress Period 430
 1  1  1.404508e+01
 1   0    Stress Period 431
 1  1  1.433013e+01
 1   0    Stress Period 432
 1  1  1.456773e+01
 1   0    Stress Period 433
 1  1  1.475528e+01
 1   0    Stress Period 434
 1  1  1.489074e+01
 1   0    Stress Period 435
 1  1  1.497261e+01
 1   0    Stress Period 436
 1  1  1.500000e+01
 1   0    Stress Period 437
 1  1  1.497261e+01
 1   0    Stress Period 438
 1  1  1.489074e+01
 1   0    Stress Period 439
 1  1  1.475528e+01
 1   0    Stress Period 440
 1  1  1.456773e+01
 1   0    Stress Period 441
 1  1  1.433013e+01
 1   0    Stress Period 442
 1  1  1.404508e+01
 1   0    Stress Period 443
 1  1  1.371572e+01
 1   0    Stress Period 444
 1  1  1.334565e+01
 1   0    Stress Period 445
 1  1  1.293893e+01
 1   0    Stress Period 446
 1  1  1.250000e+01
 1   0    Stress Period 447
 1  1  1.203368e+01
 1   0    Stress Period 448
 1  1  1.154508e+01
 1   0    Stress Period 449
 1  1  1.103956e+01
 1   0    Stress Period 450
 1  1  1.052264e+01
 1   0    Stress Period 451
 1  1  1.000000e+01
 1   0    Stress Period 452
 1  1  9.477358e+00
 1   0    Stress Period 453
 1  1  8.960442e+00
 1   0    Stress Period 454
 1  1  8.454915e+00
 1   0    Stress Period 455
 1  1  7.966317e+00
 1   0    Stress Period 456
 1  1  7.500000e+00
 1   0    Stress Period 457
 1  1  7.061074e+00
 1   0    Stress Period 458
 1  1  6.654347e+00
 1   0    Stress Period 459
 1  1  6.284276e+00
 1   0    Stress Period 460
 1  1  5.954915e+00
 1   0    Stress Period 461
 1  1  5.669873e+00
 1   0    Stress Period 462
 1  1  5.432273e+00
 1   0    Stress Period 463
 1  1  5.244717e+00
 1   0    Stress Period 464
 1  1  5.109262e+00
 1   0    Stress Period 465
 1  1  5.027391e+00
 1   0    Stress Period 466
 1  1  5.000000e+00
 1   0    Stress Period 467
 1  1  5.027391e+00
 1   0    Stress Period 468
 1  1  5.109262e+00
 1   0    Stress Period 469
 1  1  5.244717e+00
 1   0    Stress Period 470
 1  1  5.432273e+00
 1   0    Stress Period 471
 1  1  5.669873e+00
 1   0    Stress Period 472
 1  1  5.954915e+00
 1   0    Stress Period 473
 1  1  6.284276e+00
 1   0    Stress Period 474
 1  1  6.654347e+00
 1   0    Stress Period 475
 1  1  7.061074e+00
 1   0    Stress Period 476
 1  1  7.500000e+00
 1   0    Stress Period 477
 1  1  7.966317e+00
 1   0    Stress Period 478
 1  1  8.454915e+00
 1   0    Stress Period 479
 1  1  8.960442e+00
 1   0    Stress Period 480
 1  1  9.477358e+00
 1   0    Stress Period 481
 1  1  1.000000e+01
 1   0    Stress Period 482
 1  1  1.052264e+01
 1   0    Stress Period 483
 1  1  1.103956e+01
 1   0    Stress Period 484
 1  1  1.154508e+01
 1   0    Stress Period 485
 1  1  1.203368e+01
 1   0    Stress Period 486
 1  1  1.250000e+01
 1   0    Stress Period 487
 1  1  1.293893e+01
 1   0    Stress Period 488
 1  1  1.334565e+01
 1   0    Stress Period 489
 1  1  1.371572e+01
 1   0    Stress Period 490
 1  1  1.404508e+01
 1   0    Stress Period 491
 1  1  1.433013e+01
 1   0    Stress Period 492
 1  1  1.456773e+01
 1   0    Stress Period 493
 1  1  1.475528e+01
 1   0    Stress Period 494
 1  1  1.489074e+01
 1   0    Stress Period 495
 1  1  1.497261e+01
 1   0    Stress Period 496
 1  1  1.500000e+01
 1   0    Stress Period 497
 1  1  1.497261e+01
 1   0    Stress Period 498
 1  1  1.489074e+01
 1   0    Stress Period 499
 1  1  1.475528e+01
 1   0    Stress Period 500
 1  1  1.456773e+01
 1   0    Stress Period 501
 1  1  1.433013e+01
 1   0    Stress Period 502
 1  1  1.404508e+01
 1   0    Stress Period 503
 1  1  1.371572e+01
 1   0    Stress Period 504
 1  1  1.334565e+01
 1   0    Stress Period 505
 1  1  1.293893e+01
 1   0    Stress Period 506
 1  1  1.250000e+01
 1   0    Stress Period 507
 1  1  1.203368e+01
 1   0    Stress Period 508
 1  1  1.154508e+01
 1   0    Stress Period 509
 1  1  1.103956e+01
 1   0    Stress Period 510
 1  1  1.052264e+01
 1   0    Stress Period 511
 1  1  1.000000e+01
 1   0    Stress Period 512
 1  1  9.477358e+00
 1   0    Stress Period 513
 1  1  8.960442e+00
 1   0    Stress Period 514
 1  1  8.454915e+00
 1   0    Stress Period 515
 1  1  7.966317e+00
 1   0    Stress Period 516
 1  1  7.500000e+00
 1   0    Stress Period 517
 1  1  7.061074e+00
 1   0    Stress Period 518
 1  1  6.654347e+00
 1   0    Stress Period 519
 1  1  6.284276e+00
 1   0    Stress Period 520
 1  1  5.954915e+00
 1   0    Stress Period 521
 1  1  5.669873e+00
 1   0    Stress Period 522
 1  1  5.432273e+00
 1   0    Stress Period 523
 1  1  5.244717e+00
 1   0    Stress Period 524
 1  1  5.109262e+00
 1   0    Stress Period 525
 1  1  5.027391e+00
 1   0    Stress Period 526
 1  1  5.000000e+00
 1   0    Stress Period 527
 1  1  5.027391e+00
 1   0    Stress Period 528
 1  1  5.109262e+00
 1   0    Stress Period 529
 1  1  5.244717e+00
 1   0    Stress Period 530
 1  1  5.432273e+00
 1   0    Stress Period 531
 1  1  5.669873e+00
 1   0    Stress Period 532
 1  1  5.954915e+00
 1   0    Stress Period 533
 1  1  6.284276e+00
 1   0    Stress Period 534
 1  1  6.654347e+00
 1   0    Stress Period 535
 1  1  7.061074e+00
 1   0    Stress Period 536
 1  1  7.500000e+00
 1   0    Stress Period 537
 1  1  7.966317e+00
 1   0    Stress Period 538
 1  1  8.454915e+00
 1   0    Stress Period 539
 1  1  8.960442e+00
 1   0    Stress Period 540
 1  1  9.477358e+00
 1   0    Stress Period 541
 1  1  1.000000e+01
 1   0    Stress Period 542
 1  1  1.052264e+01
 1   0    Stress Period 543
 1  1  1.103956e+01
 1   0    Stress Period 544
 1  1  1.154508e+01
 1   0    Stress Period 545
 1  1  1.203368e+01
 1   0    Stress Period 546
 1  1  1.250000e+01
 1   0    Stress Period 547
 1  1  1.293893e+01
 1   0    Stress Period 548
 1  1  1.334565e+01
 1   0    Stress Period 549
 1  1  1.371572e+01
 1   0    Stress Period 550
 1  1  1.404508e+01
 1   0    Stress Period 551
 1  1  1.433013e+01
 1   0    Stress Period 552
 1  1  1.456773e+01
 1   0    Stress Period 553
 1  1  1.475528e+01
 1   0    Stress Period 554
 1  1  1.489074e+01
 1   0    Stress Period 555
 1  1  1.497261e+01
 1   0    Stress Period 556
 1  1  1.500000e+01
 1   0    Stress Period 557
 1  1  1.497261e+01
 1   0    Stress Period 558
 1  1  1.489074e+01
 1   0    Stress Period 559
 1  1  1.475528e+01
 1   0    Stress Period 560
 1  1  1.456773e+01
 1   0    Stress Period 561
 1  1  1.433013e+01
 1   0    Stress Period 562
 1  1  1.404508e+01
 1   0    Stress Period 563
 1  1  1.371572e+01
 1   0    Stress Period 564
 1  1  1.334565e+01
 1   0    Stress Period 565
 1  1  1.293893e+01
 1   0    Stress Period 566
 1  1  1.250000e+01
 1   0    Stress Period 567
 1  1  1.203368e+01
 1   0    Stress Period 568
 1  1  1.154508e+01
 1   0    Stress Period 569
 1  1  1.103956e+01
 1   0    Stress Period 570
 1  1  1.052264e+01
 1   0    Stress Period 571
 1  1  1.000000e+01
 1   0    Stress Period 572
 1  1  9.477358e+00
 1   0    Stress Period 573
 1  1  8.960442e+00
 1   0    Stress Period 574
 1  1  8.454915e+00
 1   0    Stress Period 575
 1  1  7.966317e+00
 1   0    Stress Period 576
 1  1  7.500000e+00
 1   0    Stress Period 577
 1  1  7.061074e+00
 1   0    Stress Period 578
 1  1  6.654347e+00
 1   0    Stress Period 579
 1  1  6.284276e+00
 1   0    Stress Period 580
 1  1  5.954915e+00
 1   0    Stress Period 581
 1  1  5.669873e+00
 1   0    Stress Period 582
 1  1  5.432273e+00
 1   0    Stress Period 583
 1  1  5.244717e+00
 1   0    Stress Period 584
 1  1  5.109262e+00
 1   0    Stress Period 585
 1  1  5.027391e+00
 1   0    Stress Period 586
 1  1  5.000000e+00
 1   0    Stress Period 587
 1  1  5.027391e+00
 1   0    Stress Period 588
 1  1  5.109262e+00
 1   0    Stress Period 589
 1  1  5.244717e+00
 1   0    Stress Period 590
 1  1  5.432273e+00
 1   0    Stress Period 591
 1  1  5.669873e+00
 1   0    Stress Period 592
 1  1  5.954915e+00
 1   0    Stress Period 593
 1  1  6.284276e+00
 1   0    Stress Period 594
 1  1  6.654347e+00
 1   0    Stress Period 595
 1  1  7.061074e+00
 1   0    Stress Period 596
 1  1  7.500000e+00
 1   0    Stress Period 597
 1  1  7.966317e+00
 1   0    Stress Period 598
 1  1  8.454915e+00
 1   0    Stress Period 599
 1  1  8.960442e+00
 1   0    Stress Period 600
 1  1  9.477358e+00
 1   0    Stress Period 601