# NWT for MODFLOW-NWT, generated by Flopy.
   5.0e-01   5.0e+03       100   1.0e-05         1         0         0 COMPLEX 
