# MODFLOW2005 Basic Input File
# Test Problem 3 for UPW Package and NWT Solver
FREE                                           Item 1:  options
INTERNAL  1  (FREE)  0     IBOUND Layer   1
 1 1 1 1 1 1 1 1 1 1 1 1 1 1 1 1 1 1 1 1 1 1 1 1 1 1 1 1 1 1 1 1 1 1 1 1 1 1 1 1 1 1 1 1 1 1 1 1 1 1 1 1 1 1 1 1 1 1 1 1 1 1 1 1 1 1 1 1 1 1 1 1 1 1 1 1 1 1 1 1
 1 1 1 1 1 1 1 1 1 1 1 1 1 1 1 1 1 1 1 1 1 1 1 1 1 1 1 1 1 1 1 1 1 1 1 1 1 1 1 1 1 1 1 1 1 1 1 1 1 1 1 1 1 1 1 1 1 1 1 1 1 1 1 1 1 1 1 1 1 1 1 1 1 1 1 1 1 1 1 1
 1 1 1 1 1 1 1 1 1 1 1 1 1 1 1 1 1 1 1 1 1 1 1 1 1 1 1 1 1 1 1 1 1 1 1 1 1 1 1 1 1 1 1 1 1 1 1 1 1 1 1 1 1 1 1 1 1 1 1 1 1 1 1 1 1 1 1 1 1 1 1 1 1 1 1 1 1 1 1 1
 1 1 1 1 1 1 1 1 1 1 1 1 1 1 1 1 1 1 1 1 1 1 1 1 1 1 1 1 1 1 1 1 1 1 1 1 1 1 1 1 1 1 1 1 1 1 1 1 1 1 1 1 1 1 1 1 1 1 1 1 1 1 1 1 1 1 1 1 1 1 1 1 1 1 1 1 1 1 1 1
 1 1 1 1 1 1 1 1 1 1 1 1 1 1 1 1 1 1 1 1 1 1 1 1 1 1 1 1 1 1 1 1 1 1 1 1 1 1 1 1 1 1 1 1 1 1 1 1 1 1 1 1 1 1 1 1 1 1 1 1 1 1 1 1 1 1 1 1 1 1 1 1 1 1 1 1 1 1 1 1
 1 1 1 1 1 1 1 1 1 1 1 1 1 1 1 1 1 1 1 1 1 1 1 1 1 1 1 1 1 1 1 1 1 1 1 1 1 1 1 1 1 1 1 1 1 1 1 1 1 1 1 1 1 1 1 1 1 1 1 1 1 1 1 1 1 1 1 1 1 1 1 1 1 1 1 1 1 1 1 1
 1 1 1 1 1 1 1 1 1 1 1 1 1 1 1 1 1 1 1 1 1 1 1 1 1 1 1 1 1 1 1 1 1 1 1 1 1 1 1 1 1 1 1 1 1 1 1 1 1 1 1 1 1 1 1 1 1 1 1 1 1 1 1 1 1 1 1 1 1 1 1 1 1 1 1 1 1 1 1 1
 1 1 1 1 1 1 1 1 1 1 1 1 1 1 1 1 1 1 1 1 1 1 1 1 1 1 1 1 1 1 1 1 1 1 1 1 1 1 1 1 1 1 1 1 1 1 1 1 1 1 1 1 1 1 1 1 1 1 1 1 1 1 1 1 1 1 1 1 1 1 1 1 1 1 1 1 1 1 1 1
 1 1 1 1 1 1 1 1 1 1 1 1 1 1 1 1 1 1 1 1 1 1 1 1 1 1 1 1 1 1 1 1 1 1 1 1 1 1 1 1 1 1 1 1 1 1 1 1 1 1 1 1 1 1 1 1 1 1 1 1 1 1 1 1 1 1 1 1 1 1 1 1 1 1 1 1 1 1 1 1
 1 1 1 1 1 1 1 1 1 1 1 1 1 1 1 1 1 1 1 1 1 1 1 1 1 1 1 1 1 1 1 1 1 1 1 1 1 1 1 1 1 1 1 1 1 1 1 1 1 1 1 1 1 1 1 1 1 1 1 1 1 1 1 1 1 1 1 1 1 1 1 1 1 1 1 1 1 1 1 1
 1 1 1 1 1 1 1 1 1 1 1 1 1 1 1 1 1 1 1 1 1 1 1 1 1 1 1 1 1 1 1 1 1 1 1 1 1 1 1 1 1 1 1 1 1 1 1 1 1 1 1 1 1 1 1 1 1 1 1 1 1 1 1 1 1 1 1 1 1 1 1 1 1 1 1 1 1 1 1 1
 1 1 1 1 1 1 1 1 1 1 1 1 1 1 1 1 1 1 1 1 1 1 1 1 1 1 1 1 1 1 1 1 1 1 1 1 1 1 1 1 1 1 1 1 1 1 1 1 1 1 1 1 1 1 1 1 1 1 1 1 1 1 1 1 1 1 1 1 1 1 1 1 1 1 1 1 1 1 1 1
 1 1 1 1 1 1 1 1 1 1 1 1 1 1 1 1 1 1 1 1 1 1 1 1 1 1 1 1 1 1 1 1 1 1 1 1 1 1 1 1 1 1 1 1 1 1 1 1 1 1 1 1 1 1 1 1 1 1 1 1 1 1 1 1 1 1 1 1 1 1 1 1 1 1 1 1 1 1 1 1
 1 1 1 1 1 1 1 1 1 1 1 1 1 1 1 1 1 1 1 1 1 1 1 1 1 1 1 1 1 1 1 1 1 1 1 1 1 1 1 1 1 1 1 1 1 1 1 1 1 1 1 1 1 1 1 1 1 1 1 1 1 1 1 1 1 1 1 1 1 1 1 1 1 1 1 1 1 1 1 1
 1 1 1 1 1 1 1 1 1 1 1 1 1 1 1 1 1 1 1 1 1 1 1 1 1 1 1 1 1 1 1 1 1 1 1 1 1 1 1 1 1 1 1 1 1 1 1 1 1 1 1 1 1 1 1 1 1 1 1 1 1 1 1 1 1 1 1 1 1 1 1 1 1 1 1 1 1 1 1 1
 1 1 1 1 1 1 1 1 1 1 1 1 1 1 1 1 1 1 1 1 1 1 1 1 1 1 1 1 1 1 1 1 1 1 1 1 1 1 1 1 1 1 1 1 1 1 1 1 1 1 1 1 1 1 1 1 1 1 1 1 1 1 1 1 1 1 1 1 1 1 1 1 1 1 1 1 1 1 1 1
 1 1 1 1 1 1 1 1 1 1 1 1 1 1 1 1 1 1 1 1 1 1 1 1 1 1 1 1 1 1 1 1 1 1 1 1 1 1 1 1 1 1 1 1 1 1 1 1 1 1 1 1 1 1 1 1 1 1 1 1 1 1 1 1 1 1 1 1 1 1 1 1 1 1 1 1 1 1 1 1
 1 1 1 1 1 1 1 1 1 1 1 1 1 1 1 1 1 1 1 1 1 1 1 1 1 1 1 1 1 1 1 1 1 1 1 1 1 1 1 1 1 1 1 1 1 1 1 1 1 1 1 1 1 1 1 1 1 1 1 1 1 1 1 1 1 1 1 1 1 1 1 1 1 1 1 1 1 1 1 1
 1 1 1 1 1 1 1 1 1 1 1 1 1 1 1 1 1 1 1 1 1 1 1 1 1 1 1 1 1 1 1 1 1 1 1 1 1 1 1 1 1 1 1 1 1 1 1 1 1 1 1 1 1 1 1 1 1 1 1 1 1 1 1 1 1 1 1 1 1 1 1 1 1 1 1 1 1 1 1 1
 1 1 1 1 1 1 1 1 1 1 1 1 1 1 1 1 1 1 1 1 1 1 1 1 1 1 1 1 1 1 1 1 1 1 1 1 1 1 1 1 1 1 1 1 1 1 1 1 1 1 1 1 1 1 1 1 1 1 1 1 1 1 1 1 1 1 1 1 1 1 1 1 1 1 1 1 1 1 1 1
 1 1 1 1 1 1 1 1 1 1 1 1 1 1 1 1 1 1 1 1 1 1 1 1 1 1 1 1 1 1 1 1 1 1 1 1 1 1 1 1 1 1 1 1 1 1 1 1 1 1 1 1 1 1 1 1 1 1 1 1 1 1 1 1 1 1 1 1 1 1 1 1 1 1 1 1 1 1 1 1
 1 1 1 1 1 1 1 1 1 1 1 1 1 1 1 1 1 1 1 1 1 1 1 1 1 1 1 1 1 1 1 1 1 1 1 1 1 1 1 1 1 1 1 1 1 1 1 1 1 1 1 1 1 1 1 1 1 1 1 1 1 1 1 1 1 1 1 1 1 1 1 1 1 1 1 1 1 1 1 1
 1 1 1 1 1 1 1 1 1 1 1 1 1 1 1 1 1 1 1 1 1 1 1 1 1 1 1 1 1 1 1 1 1 1 1 1 1 1 1 1 1 1 1 1 1 1 1 1 1 1 1 1 1 1 1 1 1 1 1 1 1 1 1 1 1 1 1 1 1 1 1 1 1 1 1 1 1 1 1 1
 1 1 1 1 1 1 1 1 1 1 1 1 1 1 1 1 1 1 1 1 1 1 1 1 1 1 1 1 1 1 1 1 1 1 1 1 1 1 1 1 1 1 1 1 1 1 1 1 1 1 1 1 1 1 1 1 1 1 1 1 1 1 1 1 1 1 1 1 1 1 1 1 1 1 1 1 1 1 1 1
 1 1 1 1 1 1 1 1 1 1 1 1 1 1 1 1 1 1 1 1 1 1 1 1 1 1 1 1 1 1 1 1 1 1 1 1 1 1 1 1 1 1 1 1 1 1 1 1 1 1 1 1 1 1 1 1 1 1 1 1 1 1 1 1 1 1 1 1 1 1 1 1 1 1 1 1 1 1 1 1
 1 1 1 1 1 1 1 1 1 1 1 1 1 1 1 1 1 1 1 1 1 1 1 1 1 1 1 1 1 1 1 1 1 1 1 1 1 1 1 1 1 1 1 1 1 1 1 1 1 1 1 1 1 1 1 1 1 1 1 1 1 1 1 1 1 1 1 1 1 1 1 1 1 1 1 1 1 1 1 1
 1 1 1 1 1 1 1 1 1 1 1 1 1 1 1 1 1 1 1 1 1 1 1 1 1 1 1 1 1 1 1 1 1 1 1 1 1 1 1 1 1 1 1 1 1 1 1 1 1 1 1 1 1 1 1 1 1 1 1 1 1 1 1 1 1 1 1 1 1 1 1 1 1 1 1 1 1 1 1 1
 1 1 1 1 1 1 1 1 1 1 1 1 1 1 1 1 1 1 1 1 1 1 1 1 1 1 1 1 1 1 1 1 1 1 1 1 1 1 1 1 1 1 1 1 1 1 1 1 1 1 1 1 1 1 1 1 1 1 1 1 1 1 1 1 1 1 1 1 1 1 1 1 1 1 1 1 1 1 1 1
 1 1 1 1 1 1 1 1 1 1 1 1 1 1 1 1 1 1 1 1 1 1 1 1 1 1 1 1 1 1 1 1 1 1 1 1 1 1 1 1 1 1 1 1 1 1 1 1 1 1 1 1 1 1 1 1 1 1 1 1 1 1 1 1 1 1 1 1 1 1 1 1 1 1 1 1 1 1 1 1
 1 1 1 1 1 1 1 1 1 1 1 1 1 1 1 1 1 1 1 1 1 1 1 1 1 1 1 1 1 1 1 1 1 1 1 1 1 1 1 1 1 1 1 1 1 1 1 1 1 1 1 1 1 1 1 1 1 1 1 1 1 1 1 1 1 1 1 1 1 1 1 1 1 1 1 1 1 1 1 1
 1 1 1 1 1 1 1 1 1 1 1 1 1 1 1 1 1 1 1 1 1 1 1 1 1 1 1 1 1 1 1 1 1 1 1 1 1 1 1 1 1 1 1 1 1 1 1 1 1 1 1 1 1 1 1 1 1 1 1 1 1 1 1 1 1 1 1 1 1 1 1 1 1 1 1 1 1 1 1 1
 1 1 1 1 1 1 1 1 1 1 1 1 1 1 1 1 1 1 1 1 1 1 1 1 1 1 1 1 1 1 1 1 1 1 1 1 1 1 1 1 1 1 1 1 1 1 1 1 1 1 1 1 1 1 1 1 1 1 1 1 1 1 1 1 1 1 1 1 1 1 1 1 1 1 1 1 1 1 1 1
 1 1 1 1 1 1 1 1 1 1 1 1 1 1 1 1 1 1 1 1 1 1 1 1 1 1 1 1 1 1 1 1 1 1 1 1 1 1 1 1 1 1 1 1 1 1 1 1 1 1 1 1 1 1 1 1 1 1 1 1 1 1 1 1 1 1 1 1 1 1 1 1 1 1 1 1 1 1 1 1
 1 1 1 1 1 1 1 1 1 1 1 1 1 1 1 1 1 1 1 1 1 1 1 1 1 1 1 1 1 1 1 1 1 1 1 1 1 1 1 1 1 1 1 1 1 1 1 1 1 1 1 1 1 1 1 1 1 1 1 1 1 1 1 1 1 1 1 1 1 1 1 1 1 1 1 1 1 1 1 1
 1 1 1 1 1 1 1 1 1 1 1 1 1 1 1 1 1 1 1 1 1 1 1 1 1 1 1 1 1 1 1 1 1 1 1 1 1 1 1 1 1 1 1 1 1 1 1 1 1 1 1 1 1 1 1 1 1 1 1 1 1 1 1 1 1 1 1 1 1 1 1 1 1 1 1 1 1 1 1 1
 1 1 1 1 1 1 1 1 1 1 1 1 1 1 1 1 1 1 1 1 1 1 1 1 1 1 1 1 1 1 1 1 1 1 1 1 1 1 1 1 1 1 1 1 1 1 1 1 1 1 1 1 1 1 1 1 1 1 1 1 1 1 1 1 1 1 1 1 1 1 1 1 1 1 1 1 1 1 1 1
 1 1 1 1 1 1 1 1 1 1 1 1 1 1 1 1 1 1 1 1 1 1 1 1 1 1 1 1 1 1 1 1 1 1 1 1 1 1 1 1 1 1 1 1 1 1 1 1 1 1 1 1 1 1 1 1 1 1 1 1 1 1 1 1 1 1 1 1 1 1 1 1 1 1 1 1 1 1 1 1
 1 1 1 1 1 1 1 1 1 1 1 1 1 1 1 1 1 1 1 1 1 1 1 1 1 1 1 1 1 1 1 1 1 1 1 1 1 1 1 1 1 1 1 1 1 1 1 1 1 1 1 1 1 1 1 1 1 1 1 1 1 1 1 1 1 1 1 1 1 1 1 1 1 1 1 1 1 1 1 1
 1 1 1 1 1 1 1 1 1 1 1 1 1 1 1 1 1 1 1 1 1 1 1 1 1 1 1 1 1 1 1 1 1 1 1 1 1 1 1 1 1 1 1 1 1 1 1 1 1 1 1 1 1 1 1 1 1 1 1 1 1 1 1 1 1 1 1 1 1 1 1 1 1 1 1 1 1 1 1 1
 1 1 1 1 1 1 1 1 1 1 1 1 1 1 1 1 1 1 1 1 1 1 1 1 1 1 1 1 1 1 1 1 1 1 1 1 1 1 1 1 1 1 1 1 1 1 1 1 1 1 1 1 1 1 1 1 1 1 1 1 1 1 1 1 1 1 1 1 1 1 1 1 1 1 1 1 1 1 1 1
 1 1 1 1 1 1 1 1 1 1 1 1 1 1 1 1 1 1 1 1 1 1 1 1 1 1 1 1 1 1 1 1 1 1 1 1 1 1 1 1 1 1 1 1 1 1 1 1 1 1 1 1 1 1 1 1 1 1 1 1 1 1 1 1 1 1 1 1 1 1 1 1 1 1 1 1 1 1 1 1
 1 1 1 1 1 1 1 1 1 1 1 1 1 1 1 1 1 1 1 1 1 1 1 1 1 1 1 1 1 1 1 1 1 1 1 1 1 1 1 1 1 1 1 1 1 1 1 1 1 1 1 1 1 1 1 1 1 1 1 1 1 1 1 1 1 1 1 1 1 1 1 1 1 1 1 1 1 1 1 1
 1 1 1 1 1 1 1 1 1 1 1 1 1 1 1 1 1 1 1 1 1 1 1 1 1 1 1 1 1 1 1 1 1 1 1 1 1 1 1 1 1 1 1 1 1 1 1 1 1 1 1 1 1 1 1 1 1 1 1 1 1 1 1 1 1 1 1 1 1 1 1 1 1 1 1 1 1 1 1 1
 1 1 1 1 1 1 1 1 1 1 1 1 1 1 1 1 1 1 1 1 1 1 1 1 1 1 1 1 1 1 1 1 1 1 1 1 1 1 1 1 1 1 1 1 1 1 1 1 1 1 1 1 1 1 1 1 1 1 1 1 1 1 1 1 1 1 1 1 1 1 1 1 1 1 1 1 1 1 1 1
 1 1 1 1 1 1 1 1 1 1 1 1 1 1 1 1 1 1 1 1 1 1 1 1 1 1 1 1 1 1 1 1 1 1 1 1 1 1 1 1 1 1 1 1 1 1 1 1 1 1 1 1 1 1 1 1 1 1 1 1 1 1 1 1 1 1 1 1 1 1 1 1 1 1 1 1 1 1 1 1
 1 1 1 1 1 1 1 1 1 1 1 1 1 1 1 1 1 1 1 1 1 1 1 1 1 1 1 1 1 1 1 1 1 1 1 1 1 1 1 1 1 1 1 1 1 1 1 1 1 1 1 1 1 1 1 1 1 1 1 1 1 1 1 1 1 1 1 1 1 1 1 1 1 1 1 1 1 1 1 -1
 1 1 1 1 1 1 1 1 1 1 1 1 1 1 1 1 1 1 1 1 1 1 1 1 1 1 1 1 1 1 1 1 1 1 1 1 1 1 1 1 1 1 1 1 1 1 1 1 1 1 1 1 1 1 1 1 1 1 1 1 1 1 1 1 1 1 1 1 1 1 1 1 1 1 1 1 1 1 1 -1
 1 1 1 1 1 1 1 1 1 1 1 1 1 1 1 1 1 1 1 1 1 1 1 1 1 1 1 1 1 1 1 1 1 1 1 1 1 1 1 1 1 1 1 1 1 1 1 1 1 1 1 1 1 1 1 1 1 1 1 1 1 1 1 1 1 1 1 1 1 1 1 1 1 1 1 1 1 1 1 -1
 1 1 1 1 1 1 1 1 1 1 1 1 1 1 1 1 1 1 1 1 1 1 1 1 1 1 1 1 1 1 1 1 1 1 1 1 1 1 1 1 1 1 1 1 1 1 1 1 1 1 1 1 1 1 1 1 1 1 1 1 1 1 1 1 1 1 1 1 1 1 1 1 1 1 1 1 1 1 1 1
 1 1 1 1 1 1 1 1 1 1 1 1 1 1 1 1 1 1 1 1 1 1 1 1 1 1 1 1 1 1 1 1 1 1 1 1 1 1 1 1 1 1 1 1 1 1 1 1 1 1 1 1 1 1 1 1 1 1 1 1 1 1 1 1 1 1 1 1 1 1 1 1 1 1 1 1 1 1 1 1
 1 1 1 1 1 1 1 1 1 1 1 1 1 1 1 1 1 1 1 1 1 1 1 1 1 1 1 1 1 1 1 1 1 1 1 1 1 1 1 1 1 1 1 1 1 1 1 1 1 1 1 1 1 1 1 1 1 1 1 1 1 1 1 1 1 1 1 1 1 1 1 1 1 1 1 1 1 1 1 1
 1 1 1 1 1 1 1 1 1 1 1 1 1 1 1 1 1 1 1 1 1 1 1 1 1 1 1 1 1 1 1 1 1 1 1 1 1 1 1 1 1 1 1 1 1 1 1 1 1 1 1 1 1 1 1 1 1 1 1 1 1 1 1 1 1 1 1 1 1 1 1 1 1 1 1 1 1 1 1 1
 1 1 1 1 1 1 1 1 1 1 1 1 1 1 1 1 1 1 1 1 1 1 1 1 1 1 1 1 1 1 1 1 1 1 1 1 1 1 1 1 1 1 1 1 1 1 1 1 1 1 1 1 1 1 1 1 1 1 1 1 1 1 1 1 1 1 1 1 1 1 1 1 1 1 1 1 1 1 1 1
 1 1 1 1 1 1 1 1 1 1 1 1 1 1 1 1 1 1 1 1 1 1 1 1 1 1 1 1 1 1 1 1 1 1 1 1 1 1 1 1 1 1 1 1 1 1 1 1 1 1 1 1 1 1 1 1 1 1 1 1 1 1 1 1 1 1 1 1 1 1 1 1 1 1 1 1 1 1 1 1
 1 1 1 1 1 1 1 1 1 1 1 1 1 1 1 1 1 1 1 1 1 1 1 1 1 1 1 1 1 1 1 1 1 1 1 1 1 1 1 1 1 1 1 1 1 1 1 1 1 1 1 1 1 1 1 1 1 1 1 1 1 1 1 1 1 1 1 1 1 1 1 1 1 1 1 1 1 1 1 1
 1 1 1 1 1 1 1 1 1 1 1 1 1 1 1 1 1 1 1 1 1 1 1 1 1 1 1 1 1 1 1 1 1 1 1 1 1 1 1 1 1 1 1 1 1 1 1 1 1 1 1 1 1 1 1 1 1 1 1 1 1 1 1 1 1 1 1 1 1 1 1 1 1 1 1 1 1 1 1 1
 1 1 1 1 1 1 1 1 1 1 1 1 1 1 1 1 1 1 1 1 1 1 1 1 1 1 1 1 1 1 1 1 1 1 1 1 1 1 1 1 1 1 1 1 1 1 1 1 1 1 1 1 1 1 1 1 1 1 1 1 1 1 1 1 1 1 1 1 1 1 1 1 1 1 1 1 1 1 1 1
 1 1 1 1 1 1 1 1 1 1 1 1 1 1 1 1 1 1 1 1 1 1 1 1 1 1 1 1 1 1 1 1 1 1 1 1 1 1 1 1 1 1 1 1 1 1 1 1 1 1 1 1 1 1 1 1 1 1 1 1 1 1 1 1 1 1 1 1 1 1 1 1 1 1 1 1 1 1 1 1
 1 1 1 1 1 1 1 1 1 1 1 1 1 1 1 1 1 1 1 1 1 1 1 1 1 1 1 1 1 1 1 1 1 1 1 1 1 1 1 1 1 1 1 1 1 1 1 1 1 1 1 1 1 1 1 1 1 1 1 1 1 1 1 1 1 1 1 1 1 1 1 1 1 1 1 1 1 1 1 1
 1 1 1 1 1 1 1 1 1 1 1 1 1 1 1 1 1 1 1 1 1 1 1 1 1 1 1 1 1 1 1 1 1 1 1 1 1 1 1 1 1 1 1 1 1 1 1 1 1 1 1 1 1 1 1 1 1 1 1 1 1 1 1 1 1 1 1 1 1 1 1 1 1 1 1 1 1 1 1 1
 1 1 1 1 1 1 1 1 1 1 1 1 1 1 1 1 1 1 1 1 1 1 1 1 1 1 1 1 1 1 1 1 1 1 1 1 1 1 1 1 1 1 1 1 1 1 1 1 1 1 1 1 1 1 1 1 1 1 1 1 1 1 1 1 1 1 1 1 1 1 1 1 1 1 1 1 1 1 1 1
 1 1 1 1 1 1 1 1 1 1 1 1 1 1 1 1 1 1 1 1 1 1 1 1 1 1 1 1 1 1 1 1 1 1 1 1 1 1 1 1 1 1 1 1 1 1 1 1 1 1 1 1 1 1 1 1 1 1 1 1 1 1 1 1 1 1 1 1 1 1 1 1 1 1 1 1 1 1 1 1
 1 1 1 1 1 1 1 1 1 1 1 1 1 1 1 1 1 1 1 1 1 1 1 1 1 1 1 1 1 1 1 1 1 1 1 1 1 1 1 1 1 1 1 1 1 1 1 1 1 1 1 1 1 1 1 1 1 1 1 1 1 1 1 1 1 1 1 1 1 1 1 1 1 1 1 1 1 1 1 1
 1 1 1 1 1 1 1 1 1 1 1 1 1 1 1 1 1 1 1 1 1 1 1 1 1 1 1 1 1 1 1 1 1 1 1 1 1 1 1 1 1 1 1 1 1 1 1 1 1 1 1 1 1 1 1 1 1 1 1 1 1 1 1 1 1 1 1 1 1 1 1 1 1 1 1 1 1 1 1 1
 1 1 1 1 1 1 1 1 1 1 1 1 1 1 1 1 1 1 1 1 1 1 1 1 1 1 1 1 1 1 1 1 1 1 1 1 1 1 1 1 1 1 1 1 1 1 1 1 1 1 1 1 1 1 1 1 1 1 1 1 1 1 1 1 1 1 1 1 1 1 1 1 1 1 1 1 1 1 1 1
 1 1 1 1 1 1 1 1 1 1 1 1 1 1 1 1 1 1 1 1 1 1 1 1 1 1 1 1 1 1 1 1 1 1 1 1 1 1 1 1 1 1 1 1 1 1 1 1 1 1 1 1 1 1 1 1 1 1 1 1 1 1 1 1 1 1 1 1 1 1 1 1 1 1 1 1 1 1 1 1
 1 1 1 1 1 1 1 1 1 1 1 1 1 1 1 1 1 1 1 1 1 1 1 1 1 1 1 1 1 1 1 1 1 1 1 1 1 1 1 1 1 1 1 1 1 1 1 1 1 1 1 1 1 1 1 1 1 1 1 1 1 1 1 1 1 1 1 1 1 1 1 1 1 1 1 1 1 1 1 1
 1 1 1 1 1 1 1 1 1 1 1 1 1 1 1 1 1 1 1 1 1 1 1 1 1 1 1 1 1 1 1 1 1 1 1 1 1 1 1 1 1 1 1 1 1 1 1 1 1 1 1 1 1 1 1 1 1 1 1 1 1 1 1 1 1 1 1 1 1 1 1 1 1 1 1 1 1 1 1 1
 1 1 1 1 1 1 1 1 1 1 1 1 1 1 1 1 1 1 1 1 1 1 1 1 1 1 1 1 1 1 1 1 1 1 1 1 1 1 1 1 1 1 1 1 1 1 1 1 1 1 1 1 1 1 1 1 1 1 1 1 1 1 1 1 1 1 1 1 1 1 1 1 1 1 1 1 1 1 1 1
 1 1 1 1 1 1 1 1 1 1 1 1 1 1 1 1 1 1 1 1 1 1 1 1 1 1 1 1 1 1 1 1 1 1 1 1 1 1 1 1 1 1 1 1 1 1 1 1 1 1 1 1 1 1 1 1 1 1 1 1 1 1 1 1 1 1 1 1 1 1 1 1 1 1 1 1 1 1 1 1
 1 1 1 1 1 1 1 1 1 1 1 1 1 1 1 1 1 1 1 1 1 1 1 1 1 1 1 1 1 1 1 1 1 1 1 1 1 1 1 1 1 1 1 1 1 1 1 1 1 1 1 1 1 1 1 1 1 1 1 1 1 1 1 1 1 1 1 1 1 1 1 1 1 1 1 1 1 1 1 1
 1 1 1 1 1 1 1 1 1 1 1 1 1 1 1 1 1 1 1 1 1 1 1 1 1 1 1 1 1 1 1 1 1 1 1 1 1 1 1 1 1 1 1 1 1 1 1 1 1 1 1 1 1 1 1 1 1 1 1 1 1 1 1 1 1 1 1 1 1 1 1 1 1 1 1 1 1 1 1 1
 1 1 1 1 1 1 1 1 1 1 1 1 1 1 1 1 1 1 1 1 1 1 1 1 1 1 1 1 1 1 1 1 1 1 1 1 1 1 1 1 1 1 1 1 1 1 1 1 1 1 1 1 1 1 1 1 1 1 1 1 1 1 1 1 1 1 1 1 1 1 1 1 1 1 1 1 1 1 1 1
 1 1 1 1 1 1 1 1 1 1 1 1 1 1 1 1 1 1 1 1 1 1 1 1 1 1 1 1 1 1 1 1 1 1 1 1 1 1 1 1 1 1 1 1 1 1 1 1 1 1 1 1 1 1 1 1 1 1 1 1 1 1 1 1 1 1 1 1 1 1 1 1 1 1 1 1 1 1 1 1
 1 1 1 1 1 1 1 1 1 1 1 1 1 1 1 1 1 1 1 1 1 1 1 1 1 1 1 1 1 1 1 1 1 1 1 1 1 1 1 1 1 1 1 1 1 1 1 1 1 1 1 1 1 1 1 1 1 1 1 1 1 1 1 1 1 1 1 1 1 1 1 1 1 1 1 1 1 1 1 1
 1 1 1 1 1 1 1 1 1 1 1 1 1 1 1 1 1 1 1 1 1 1 1 1 1 1 1 1 1 1 1 1 1 1 1 1 1 1 1 1 1 1 1 1 1 1 1 1 1 1 1 1 1 1 1 1 1 1 1 1 1 1 1 1 1 1 1 1 1 1 1 1 1 1 1 1 1 1 1 1
 1 1 1 1 1 1 1 1 1 1 1 1 1 1 1 1 1 1 1 1 1 1 1 1 1 1 1 1 1 1 1 1 1 1 1 1 1 1 1 1 1 1 1 1 1 1 1 1 1 1 1 1 1 1 1 1 1 1 1 1 1 1 1 1 1 1 1 1 1 1 1 1 1 1 1 1 1 1 1 1
 1 1 1 1 1 1 1 1 1 1 1 1 1 1 1 1 1 1 1 1 1 1 1 1 1 1 1 1 1 1 1 1 1 1 1 1 1 1 1 1 1 1 1 1 1 1 1 1 1 1 1 1 1 1 1 1 1 1 1 1 1 1 1 1 1 1 1 1 1 1 1 1 1 1 1 1 1 1 1 1
 1 1 1 1 1 1 1 1 1 1 1 1 1 1 1 1 1 1 1 1 1 1 1 1 1 1 1 1 1 1 1 1 1 1 1 1 1 1 1 1 1 1 1 1 1 1 1 1 1 1 1 1 1 1 1 1 1 1 1 1 1 1 1 1 1 1 1 1 1 1 1 1 1 1 1 1 1 1 1 1
 1 1 1 1 1 1 1 1 1 1 1 1 1 1 1 1 1 1 1 1 1 1 1 1 1 1 1 1 1 1 1 1 1 1 1 1 1 1 1 1 1 1 1 1 1 1 1 1 1 1 1 1 1 1 1 1 1 1 1 1 1 1 1 1 1 1 1 1 1 1 1 1 1 1 1 1 1 1 1 1
-9.990e+02
INTERNAL  1.0  (FREE)  0
54.9	55.5	56.1	56.6	57.2	57.8	58.3	58.9	59.5	60.1	60.6	61.2	61.8	62.4	63.0	63.5	64.1	64.7	65.3	65.9	66.5	67.1	67.7	68.2	68.8	69.4	70.0	70.6	71.2	71.8	72.4	72.9	73.5	74.1	74.7	75.3	75.9	76.5	77.0	77.6	78.2	78.8	79.4	79.9	80.5	81.1	81.7	82.2	82.8	83.4	84.0	84.5	85.1	85.7	86.2	86.8	87.3	87.9	88.4	89.0	89.5	90.1	90.6	91.2	91.7	92.2	92.8	93.3	93.8	94.4	94.9	95.4	95.9	96.4	96.9	97.4	97.9	98.4	98.9	99.4
55.9	56.5	57.0	57.5	58.0	58.5	58.9	59.4	59.9	60.4	60.8	61.3	61.8	62.3	62.9	63.4	64.0	64.5	65.1	65.7	66.4	67.0	67.6	68.3	68.9	69.6	70.2	70.8	71.5	72.1	72.6	73.2	73.8	74.3	74.9	75.4	75.9	76.4	76.8	77.3	77.8	78.3	78.8	79.3	79.8	80.3	80.8	81.4	81.9	82.5	83.1	83.7	84.3	84.9	85.5	86.1	86.7	87.3	87.9	88.5	89.1	89.6	90.2	90.7	91.2	91.7	92.2	92.6	93.1	93.5	93.9	94.3	94.7	95.2	95.6	96.0	96.4	96.9	97.4	97.8
57.0	57.5	57.9	58.4	58.8	59.2	59.6	60.0	60.3	60.7	61.1	61.5	61.9	62.3	62.8	63.3	63.8	64.4	65.0	65.6	66.3	66.9	67.6	68.3	69.0	69.7	70.4	71.1	71.7	72.3	72.9	73.5	74.0	74.5	75.0	75.4	75.9	76.2	76.6	77.0	77.4	77.8	78.1	78.6	79.0	79.4	79.9	80.4	81.0	81.5	82.1	82.8	83.4	84.1	84.7	85.4	86.1	86.7	87.4	88.0	88.6	89.2	89.7	90.2	90.7	91.1	91.5	91.9	92.2	92.6	92.9	93.2	93.5	93.8	94.2	94.5	94.9	95.3	95.7	96.2
58.1	58.5	58.9	59.3	59.7	60.0	60.2	60.5	60.8	61.0	61.3	61.6	62.0	62.3	62.7	63.2	63.7	64.3	64.9	65.5	66.2	66.9	67.6	68.4	69.1	69.9	70.6	71.3	72.0	72.6	73.2	73.8	74.3	74.7	75.1	75.5	75.8	76.1	76.4	76.7	76.9	77.2	77.5	77.8	78.2	78.6	79.0	79.5	80.0	80.6	81.2	81.8	82.5	83.2	83.9	84.6	85.4	86.1	86.8	87.4	88.0	88.6	89.1	89.6	90.1	90.4	90.8	91.1	91.3	91.6	91.8	92.0	92.2	92.4	92.7	92.9	93.3	93.6	94.0	94.4
59.2	59.6	60.0	60.3	60.5	60.8	60.9	61.1	61.3	61.4	61.6	61.8	62.1	62.3	62.7	63.1	63.6	64.1	64.7	65.4	66.1	66.8	67.6	68.4	69.2	70.0	70.8	71.5	72.2	72.9	73.5	74.0	74.5	74.9	75.2	75.5	75.8	76.0	76.1	76.3	76.5	76.6	76.8	77.1	77.3	77.7	78.0	78.5	79.0	79.5	80.2	80.8	81.6	82.3	83.1	83.8	84.6	85.4	86.1	86.8	87.4	88.0	88.5	89.0	89.4	89.7	90.0	90.2	90.4	90.5	90.6	90.7	90.8	91.0	91.1	91.3	91.6	91.8	92.2	92.6
60.3	60.7	61.0	61.3	61.5	61.6	61.7	61.7	61.8	61.8	61.9	62.0	62.2	62.4	62.7	63.0	63.5	64.0	64.6	65.3	66.0	66.8	67.6	68.5	69.3	70.2	71.0	71.8	72.5	73.2	73.7	74.3	74.7	75.1	75.3	75.5	75.7	75.8	75.9	75.9	76.0	76.1	76.2	76.3	76.5	76.7	77.1	77.5	78.0	78.5	79.1	79.8	80.6	81.4	82.2	83.0	83.8	84.6	85.4	86.1	86.8	87.4	87.9	88.3	88.7	88.9	89.1	89.3	89.4	89.4	89.4	89.4	89.4	89.5	89.5	89.6	89.8	90.0	90.3	90.7
61.5	61.9	62.1	62.3	62.4	62.4	62.4	62.4	62.3	62.2	62.2	62.2	62.3	62.4	62.7	63.0	63.4	63.9	64.5	65.2	66.0	66.8	67.6	68.5	69.4	70.3	71.2	72.0	72.7	73.4	74.0	74.5	74.9	75.2	75.4	75.6	75.6	75.6	75.6	75.5	75.5	75.5	75.4	75.5	75.6	75.8	76.1	76.4	76.9	77.4	78.1	78.8	79.6	80.4	81.3	82.1	83.0	83.9	84.7	85.4	86.1	86.7	87.2	87.6	87.9	88.1	88.3	88.3	88.3	88.2	88.2	88.0	88.0	87.9	87.9	87.9	88.0	88.2	88.4	88.8
62.7	63.0	63.2	63.3	63.4	63.3	63.2	63.0	62.8	62.7	62.6	62.5	62.5	62.5	62.7	63.0	63.3	63.8	64.4	65.1	65.9	66.8	67.7	68.6	69.5	70.5	71.4	72.2	73.0	73.7	74.2	74.7	75.1	75.3	75.5	75.5	75.5	75.4	75.3	75.1	75.0	74.8	74.7	74.7	74.7	74.8	75.1	75.4	75.8	76.4	77.0	77.7	78.6	79.4	80.3	81.2	82.2	83.1	83.9	84.7	85.4	86.0	86.5	86.8	87.1	87.3	87.3	87.3	87.2	87.0	86.8	86.6	86.4	86.3	86.1	86.1	86.1	86.2	86.5	86.8
64.0	64.2	64.4	64.4	64.3	64.2	64.0	63.7	63.4	63.2	62.9	62.7	62.6	62.6	62.7	63.0	63.3	63.8	64.4	65.1	65.9	66.8	67.7	68.7	69.7	70.6	71.6	72.4	73.2	73.9	74.5	74.9	75.3	75.5	75.6	75.5	75.4	75.2	75.0	74.7	74.4	74.2	74.0	73.9	73.8	73.9	74.0	74.3	74.7	75.3	75.9	76.7	77.5	78.4	79.3	80.3	81.3	82.2	83.1	83.9	84.6	85.2	85.7	86.0	86.2	86.3	86.3	86.2	86.0	85.8	85.5	85.2	84.9	84.6	84.4	84.2	84.2	84.3	84.5	84.8
65.2	65.4	65.5	65.5	65.3	65.1	64.8	64.4	64.0	63.6	63.3	63.0	62.8	62.7	62.8	63.0	63.3	63.7	64.3	65.0	65.8	66.7	67.7	68.7	69.8	70.8	71.7	72.6	73.4	74.1	74.7	75.1	75.4	75.6	75.6	75.5	75.3	75.0	74.7	74.3	73.9	73.5	73.2	73.0	72.9	72.9	73.0	73.2	73.6	74.1	74.8	75.6	76.4	77.4	78.3	79.4	80.4	81.3	82.2	83.1	83.8	84.4	84.8	85.2	85.4	85.4	85.3	85.1	84.8	84.5	84.1	83.7	83.2	82.9	82.6	82.4	82.3	82.3	82.4	82.7
66.5	66.7	66.7	66.6	66.3	66.0	65.6	65.1	64.6	64.1	63.7	63.3	63.0	62.9	62.8	63.0	63.2	63.7	64.3	65.0	65.8	66.8	67.8	68.8	69.9	70.9	71.9	72.9	73.7	74.4	74.9	75.3	75.6	75.7	75.6	75.5	75.2	74.8	74.3	73.8	73.4	72.9	72.5	72.2	71.9	71.9	71.9	72.1	72.5	73.0	73.6	74.4	75.3	76.3	77.3	78.4	79.4	80.4	81.4	82.2	82.9	83.5	84.0	84.3	84.4	84.4	84.2	84.0	83.6	83.1	82.6	82.1	81.6	81.1	80.7	80.4	80.3	80.2	80.3	80.6
67.8	67.9	67.9	67.7	67.4	66.9	66.4	65.8	65.2	64.6	64.1	63.6	63.3	63.0	62.9	63.0	63.2	63.6	64.2	64.9	65.8	66.8	67.8	68.9	70.0	71.1	72.1	73.1	73.9	74.6	75.1	75.5	75.7	75.8	75.7	75.4	75.0	74.5	74.0	73.4	72.8	72.2	71.7	71.3	71.0	70.8	70.8	71.0	71.3	71.8	72.5	73.3	74.2	75.2	76.3	77.4	78.4	79.5	80.5	81.3	82.1	82.7	83.1	83.4	83.4	83.4	83.1	82.8	82.3	81.8	81.2	80.5	79.9	79.3	78.9	78.5	78.2	78.1	78.2	78.4
69.1	69.2	69.1	68.8	68.4	67.9	67.3	66.6	65.9	65.2	64.5	63.9	63.5	63.2	63.0	63.0	63.2	63.6	64.2	64.9	65.8	66.8	67.8	69.0	70.1	71.2	72.3	73.3	74.1	74.8	75.3	75.7	75.9	75.9	75.7	75.3	74.9	74.3	73.6	72.9	72.2	71.5	70.9	70.4	70.1	69.8	69.8	69.9	70.2	70.7	71.3	72.1	73.1	74.1	75.2	76.3	77.4	78.5	79.5	80.4	81.2	81.7	82.2	82.4	82.4	82.3	82.0	81.6	81.0	80.4	79.6	78.9	78.2	77.5	77.0	76.5	76.2	76.0	76.0	76.2
70.4	70.4	70.3	69.9	69.5	68.8	68.1	67.3	66.5	65.7	65.0	64.3	63.7	63.4	63.1	63.1	63.3	63.6	64.2	64.9	65.8	66.8	67.9	69.1	70.2	71.4	72.5	73.4	74.3	75.0	75.5	75.9	76.0	75.9	75.7	75.3	74.7	74.0	73.3	72.4	71.6	70.9	70.2	69.6	69.1	68.8	68.7	68.8	69.0	69.5	70.2	71.0	71.9	73.0	74.1	75.3	76.4	77.5	78.6	79.5	80.2	80.8	81.2	81.4	81.4	81.2	80.9	80.3	79.7	78.9	78.1	77.3	76.5	75.7	75.0	74.5	74.1	73.9	73.9	74.0
71.7	71.7	71.5	71.1	70.5	69.8	69.0	68.1	67.2	66.3	65.4	64.6	64.0	63.5	63.3	63.2	63.3	63.6	64.2	64.9	65.8	66.8	68.0	69.1	70.3	71.5	72.6	73.6	74.5	75.2	75.7	76.0	76.1	76.0	75.7	75.2	74.5	73.7	72.9	72.0	71.1	70.2	69.4	68.7	68.1	67.8	67.6	67.6	67.9	68.3	69.0	69.8	70.8	71.9	73.0	74.2	75.4	76.5	77.6	78.5	79.3	79.8	80.2	80.4	80.4	80.1	79.7	79.1	78.3	77.5	76.6	75.6	74.7	73.8	73.1	72.5	72.0	71.7	71.7	71.8
73.0	72.9	72.7	72.2	71.6	70.8	69.8	68.9	67.8	66.8	65.9	65.0	64.3	63.7	63.4	63.3	63.3	63.7	64.2	64.9	65.8	66.9	68.0	69.2	70.5	71.7	72.8	73.8	74.7	75.4	75.9	76.2	76.2	76.0	75.7	75.1	74.3	73.5	72.5	71.5	70.5	69.5	68.6	67.8	67.2	66.7	66.5	66.5	66.7	67.2	67.8	68.6	69.6	70.7	71.9	73.1	74.4	75.5	76.6	77.5	78.3	78.9	79.2	79.4	79.3	79.0	78.5	77.8	76.9	76.0	75.0	74.0	72.9	72.0	71.1	70.4	69.9	69.6	69.5	69.6
74.3	74.2	73.9	73.4	72.6	71.7	70.7	69.6	68.5	67.4	66.3	65.4	64.6	64.0	63.5	63.4	63.4	63.7	64.2	64.9	65.8	66.9	68.1	69.3	70.6	71.8	73.0	74.0	74.9	75.6	76.0	76.3	76.3	76.1	75.6	75.0	74.1	73.2	72.1	71.0	69.9	68.8	67.8	66.9	66.2	65.7	65.4	65.4	65.6	66.0	66.6	67.5	68.5	69.6	70.8	72.1	73.3	74.5	75.6	76.5	77.3	77.9	78.2	78.3	78.2	77.8	77.2	76.5	75.5	74.5	73.4	72.3	71.2	70.1	69.2	68.4	67.8	67.4	67.3	67.3
75.6	75.5	75.1	74.5	73.7	72.7	71.6	70.4	69.2	67.9	66.8	65.8	64.9	64.2	63.7	63.5	63.5	63.7	64.2	65.0	65.9	67.0	68.1	69.4	70.7	71.9	73.1	74.2	75.0	75.7	76.2	76.4	76.4	76.1	75.6	74.9	73.9	72.9	71.7	70.5	69.3	68.1	67.0	66.1	65.3	64.7	64.4	64.3	64.4	64.8	65.5	66.3	67.3	68.5	69.7	71.0	72.2	73.5	74.6	75.5	76.3	76.8	77.2	77.2	77.1	76.6	76.0	75.1	74.1	73.0	71.8	70.6	69.4	68.2	67.2	66.4	65.7	65.2	65.0	65.1
76.9	76.7	76.3	75.6	74.7	73.7	72.5	71.2	69.8	68.5	67.3	66.1	65.2	64.4	63.9	63.6	63.6	63.8	64.3	65.0	65.9	67.0	68.2	69.5	70.8	72.1	73.3	74.3	75.2	75.9	76.3	76.5	76.5	76.1	75.5	74.7	73.7	72.6	71.3	70.0	68.7	67.4	66.2	65.2	64.3	63.7	63.3	63.2	63.3	63.7	64.3	65.1	66.2	67.3	68.6	69.9	71.2	72.4	73.5	74.5	75.3	75.8	76.1	76.2	75.9	75.5	74.7	73.8	72.7	71.5	70.2	68.9	67.6	66.4	65.3	64.3	63.6	63.1	62.8	62.9
78.2	78.0	77.5	76.7	75.8	74.6	73.3	71.9	70.5	69.1	67.8	66.5	65.5	64.7	64.1	63.7	63.6	63.9	64.3	65.0	66.0	67.1	68.3	69.6	70.9	72.2	73.4	74.5	75.4	76.0	76.5	76.6	76.5	76.1	75.5	74.6	73.5	72.3	70.9	69.5	68.1	66.7	65.5	64.3	63.4	62.7	62.2	62.1	62.2	62.5	63.1	64.0	65.0	66.2	67.5	68.8	70.1	71.4	72.5	73.5	74.2	74.8	75.1	75.1	74.8	74.3	73.5	72.5	71.3	70.0	68.6	67.2	65.8	64.5	63.3	62.3	61.5	60.9	60.7	60.6
79.5	79.2	78.6	77.8	76.8	75.6	74.2	72.7	71.2	69.7	68.2	66.9	65.8	64.9	64.2	63.9	63.7	63.9	64.4	65.1	66.0	67.1	68.4	69.7	71.0	72.3	73.5	74.6	75.5	76.2	76.6	76.7	76.6	76.1	75.4	74.5	73.3	72.0	70.5	69.0	67.5	66.0	64.7	63.5	62.5	61.7	61.2	61.0	61.0	61.4	62.0	62.8	63.9	65.1	66.4	67.7	69.0	70.3	71.5	72.4	73.2	73.7	74.0	74.0	73.7	73.1	72.2	71.1	69.9	68.5	67.0	65.5	64.0	62.6	61.4	60.3	59.4	58.8	58.5	58.4
80.7	80.4	79.8	78.9	77.8	76.5	75.0	73.5	71.8	70.2	68.7	67.3	66.1	65.2	64.4	64.0	63.9	64.0	64.4	65.1	66.1	67.2	68.4	69.8	71.1	72.5	73.7	74.8	75.7	76.3	76.7	76.8	76.6	76.1	75.4	74.3	73.1	71.7	70.1	68.5	66.9	65.4	63.9	62.6	61.6	60.7	60.2	59.9	59.9	60.3	60.9	61.7	62.8	64.0	65.3	66.6	68.0	69.3	70.4	71.4	72.2	72.7	72.9	72.9	72.5	71.9	71.0	69.8	68.5	67.0	65.4	63.8	62.3	60.8	59.4	58.3	57.4	56.7	56.3	56.3
81.9	81.6	80.9	80.0	78.8	77.4	75.9	74.2	72.5	70.8	69.2	67.8	66.5	65.4	64.6	64.2	64.0	64.1	64.5	65.2	66.1	67.2	68.5	69.9	71.2	72.6	73.8	74.9	75.8	76.4	76.8	76.9	76.6	76.1	75.3	74.2	72.9	71.4	69.7	68.1	66.4	64.7	63.2	61.8	60.7	59.8	59.2	58.9	58.9	59.2	59.8	60.6	61.6	62.9	64.2	65.6	66.9	68.2	69.4	70.4	71.2	71.7	71.9	71.8	71.4	70.7	69.7	68.5	67.1	65.5	63.9	62.2	60.5	59.0	57.5	56.3	55.3	54.6	54.2	54.1
83.1	82.7	82.0	81.0	79.8	78.3	76.7	74.9	73.2	71.4	69.7	68.2	66.8	65.7	64.9	64.3	64.1	64.2	64.6	65.3	66.2	67.3	68.6	70.0	71.3	72.7	73.9	75.0	75.9	76.5	76.9	76.9	76.7	76.1	75.2	74.0	72.6	71.1	69.4	67.6	65.8	64.1	62.5	61.0	59.8	58.8	58.2	57.8	57.8	58.1	58.7	59.5	60.5	61.8	63.1	64.5	65.9	67.2	68.4	69.4	70.1	70.6	70.8	70.7	70.2	69.5	68.4	67.2	65.7	64.0	62.3	60.5	58.8	57.2	55.7	54.4	53.3	52.6	52.1	52.0
84.3	83.9	83.1	82.1	80.7	79.2	77.5	75.7	73.8	72.0	70.2	68.6	67.1	66.0	65.1	64.5	64.2	64.3	64.7	65.3	66.3	67.4	68.7	70.0	71.4	72.8	74.1	75.1	76.0	76.7	77.0	77.0	76.7	76.0	75.1	73.9	72.4	70.8	69.0	67.1	65.2	63.4	61.7	60.2	58.9	57.9	57.2	56.8	56.8	57.0	57.6	58.4	59.5	60.7	62.1	63.5	64.9	66.2	67.4	68.4	69.1	69.6	69.7	69.6	69.1	68.3	67.2	65.9	64.3	62.6	60.8	58.9	57.1	55.4	53.8	52.5	51.4	50.6	50.1	49.9
85.5	85.0	84.2	83.1	81.7	80.1	78.3	76.4	74.4	72.5	70.7	69.0	67.5	66.2	65.3	64.7	64.4	64.4	64.8	65.4	66.3	67.5	68.8	70.1	71.5	72.9	74.2	75.3	76.1	76.7	77.0	77.0	76.7	76.0	75.0	73.7	72.2	70.5	68.6	66.6	64.7	62.8	61.0	59.5	58.1	57.0	56.3	55.9	55.8	56.0	56.6	57.4	58.4	59.7	61.0	62.4	63.8	65.2	66.4	67.4	68.1	68.6	68.7	68.5	68.0	67.1	66.0	64.6	63.0	61.2	59.3	57.4	55.5	53.7	52.0	50.6	49.5	48.6	48.1	47.9
86.6	86.1	85.2	84.0	82.6	80.9	79.1	77.1	75.1	73.1	71.1	69.4	67.8	66.5	65.5	64.8	64.5	64.5	64.9	65.5	66.4	67.6	68.8	70.2	71.6	73.0	74.3	75.4	76.2	76.8	77.1	77.1	76.7	75.9	74.9	73.5	71.9	70.2	68.2	66.2	64.2	62.2	60.4	58.7	57.3	56.2	55.4	54.9	54.8	55.0	55.5	56.4	57.4	58.7	60.0	61.4	62.9	64.2	65.4	66.4	67.1	67.5	67.7	67.4	66.9	66.0	64.8	63.3	61.6	59.8	57.8	55.8	53.8	52.0	50.3	48.8	47.6	46.7	46.1	45.9
87.7	87.1	86.2	85.0	83.5	81.7	79.8	77.8	75.7	73.6	71.6	69.8	68.1	66.8	65.7	65.0	64.7	64.6	65.0	65.6	66.5	67.6	68.9	70.3	71.7	73.1	74.4	75.5	76.3	76.9	77.2	77.1	76.7	75.9	74.8	73.4	71.7	69.9	67.8	65.8	63.7	61.6	59.7	58.0	56.5	55.4	54.5	54.0	53.9	54.0	54.6	55.4	56.4	57.7	59.0	60.5	61.9	63.2	64.4	65.4	66.1	66.6	66.6	66.4	65.8	64.9	63.6	62.1	60.3	58.4	56.4	54.3	52.3	50.3	48.6	47.1	45.8	44.9	44.2	44.0
88.7	88.1	87.2	85.9	84.3	82.5	80.5	78.4	76.3	74.1	72.0	70.2	68.5	67.1	66.0	65.2	64.8	64.8	65.1	65.7	66.6	67.7	69.0	70.4	71.8	73.2	74.5	75.5	76.4	77.0	77.2	77.1	76.6	75.8	74.7	73.2	71.5	69.6	67.5	65.3	63.2	61.1	59.1	57.3	55.8	54.6	53.7	53.1	52.9	53.1	53.6	54.4	55.5	56.7	58.1	59.5	60.9	62.3	63.5	64.5	65.2	65.6	65.6	65.4	64.7	63.7	62.4	60.9	59.0	57.1	55.0	52.8	50.7	48.8	46.9	45.3	44.0	43.1	42.4	42.1
89.7	89.1	88.1	86.8	85.2	83.3	81.2	79.1	76.8	74.6	72.5	70.5	68.8	67.3	66.2	65.4	65.0	64.9	65.2	65.8	66.7	67.8	69.1	70.5	71.9	73.3	74.5	75.6	76.5	77.0	77.2	77.1	76.6	75.8	74.6	73.0	71.3	69.3	67.1	64.9	62.7	60.5	58.5	56.6	55.1	53.8	52.9	52.3	52.1	52.2	52.7	53.5	54.5	55.8	57.2	58.6	60.0	61.4	62.6	63.5	64.2	64.6	64.7	64.4	63.7	62.7	61.3	59.7	57.8	55.8	53.6	51.4	49.3	47.2	45.3	43.7	42.3	41.3	40.7	40.3
90.7	90.0	89.0	87.6	85.9	84.0	81.9	79.7	77.4	75.1	72.9	70.9	69.1	67.6	66.4	65.6	65.1	65.0	65.3	65.9	66.8	67.9	69.2	70.6	72.0	73.4	74.6	75.7	76.5	77.1	77.3	77.1	76.6	75.7	74.4	72.9	71.0	69.0	66.8	64.5	62.2	60.0	57.9	56.0	54.4	53.1	52.1	51.5	51.2	51.4	51.8	52.6	53.7	54.9	56.3	57.7	59.1	60.5	61.7	62.6	63.3	63.7	63.7	63.4	62.7	61.6	60.2	58.5	56.6	54.5	52.3	50.1	47.8	45.7	43.8	42.1	40.7	39.7	39.0	38.6
91.6	90.9	89.8	88.4	86.7	84.7	82.5	80.3	77.9	75.6	73.3	71.3	69.4	67.9	66.7	65.8	65.3	65.2	65.4	66.0	66.9	68.0	69.3	70.6	72.1	73.4	74.7	75.7	76.6	77.1	77.3	77.1	76.5	75.6	74.3	72.7	70.8	68.7	66.5	64.1	61.8	59.5	57.3	55.4	53.7	52.4	51.4	50.7	50.4	50.6	51.0	51.8	52.8	54.0	55.4	56.9	58.3	59.6	60.8	61.8	62.4	62.8	62.8	62.4	61.7	60.6	59.2	57.4	55.5	53.3	51.0	48.7	46.5	44.3	42.3	40.6	39.2	38.1	37.3	37.0
92.4	91.7	90.6	89.2	87.4	85.4	83.2	80.8	78.4	76.0	73.7	71.6	69.7	68.2	66.9	66.0	65.5	65.3	65.5	66.1	67.0	68.1	69.3	70.7	72.1	73.5	74.7	75.8	76.6	77.1	77.3	77.1	76.5	75.5	74.2	72.5	70.6	68.4	66.1	63.7	61.3	59.0	56.8	54.8	53.1	51.7	50.7	50.0	49.7	49.8	50.2	51.0	52.0	53.2	54.6	56.0	57.5	58.8	60.0	60.9	61.6	61.9	61.9	61.5	60.8	59.6	58.1	56.4	54.4	52.2	49.8	47.5	45.2	43.0	40.9	39.2	37.7	36.6	35.8	35.4
93.3	92.5	91.4	89.9	88.1	86.0	83.7	81.3	78.9	76.5	74.1	72.0	70.0	68.4	67.1	66.2	65.6	65.5	65.7	66.2	67.1	68.1	69.4	70.8	72.2	73.6	74.8	75.8	76.6	77.1	77.3	77.0	76.4	75.4	74.1	72.4	70.4	68.2	65.8	63.4	60.9	58.6	56.3	54.3	52.5	51.1	50.0	49.3	49.0	49.1	49.5	50.2	51.2	52.5	53.8	55.3	56.7	58.0	59.2	60.1	60.8	61.1	61.1	60.6	59.8	58.7	57.2	55.4	53.3	51.0	48.7	46.3	43.9	41.7	39.6	37.8	36.3	35.1	34.3	33.9
94.0	93.2	92.1	90.5	88.7	86.6	84.3	81.9	79.4	76.9	74.5	72.3	70.3	68.7	67.3	66.4	65.8	65.6	65.8	66.3	67.2	68.2	69.5	70.9	72.3	73.6	74.8	75.9	76.7	77.1	77.3	77.0	76.4	75.3	73.9	72.2	70.2	67.9	65.5	63.1	60.6	58.1	55.9	53.8	52.0	50.5	49.4	48.7	48.3	48.4	48.8	49.5	50.5	51.7	53.1	54.5	55.9	57.2	58.4	59.3	60.0	60.3	60.2	59.8	59.0	57.8	56.2	54.4	52.3	50.0	47.6	45.2	42.8	40.5	38.4	36.5	35.0	33.8	33.0	32.6
94.7	93.9	92.7	91.2	89.3	87.1	84.8	82.3	79.8	77.3	74.9	72.6	70.6	68.9	67.6	66.6	66.0	65.8	65.9	66.4	67.3	68.3	69.6	70.9	72.3	73.7	74.9	75.9	76.7	77.1	77.2	76.9	76.3	75.2	73.8	72.0	70.0	67.7	65.3	62.7	60.2	57.7	55.4	53.3	51.5	50.0	48.8	48.1	47.7	47.8	48.2	48.9	49.9	51.1	52.4	53.8	55.2	56.5	57.7	58.6	59.2	59.5	59.5	59.0	58.2	56.9	55.4	53.5	51.3	49.0	46.6	44.1	41.7	39.3	37.2	35.3	33.8	32.5	31.7	31.3
95.4	94.5	93.3	91.7	89.8	87.6	85.3	82.8	80.2	77.6	75.2	72.9	70.9	69.2	67.8	66.8	66.1	65.9	66.1	66.6	67.4	68.4	69.6	71.0	72.4	73.7	74.9	75.9	76.7	77.1	77.2	76.9	76.2	75.1	73.7	71.9	69.8	67.5	65.0	62.4	59.9	57.4	55.0	52.9	51.0	49.5	48.3	47.6	47.2	47.2	47.6	48.3	49.2	50.4	51.8	53.2	54.6	55.9	57.0	57.9	58.5	58.8	58.7	58.2	57.4	56.1	54.5	52.6	50.4	48.1	45.6	43.1	40.6	38.3	36.1	34.2	32.6	31.4	30.5	30.1
95.9	95.1	93.8	92.2	90.3	88.1	85.7	83.2	80.6	78.0	75.5	73.2	71.2	69.4	68.0	66.9	66.3	66.1	66.2	66.7	67.5	68.5	69.7	71.0	72.4	73.7	74.9	75.9	76.7	77.1	77.2	76.8	76.1	75.0	73.5	71.7	69.6	67.3	64.8	62.2	59.6	57.0	54.7	52.5	50.6	49.1	47.9	47.1	46.7	46.7	47.0	47.7	48.7	49.9	51.2	52.6	54.0	55.2	56.4	57.3	57.9	58.1	58.0	57.5	56.6	55.4	53.7	51.8	49.6	47.2	44.7	42.2	39.7	37.3	35.1	33.2	31.6	30.3	29.4	29.0
96.5	95.6	94.3	92.7	90.8	88.5	86.1	83.5	80.9	78.3	75.8	73.5	71.4	69.6	68.2	67.1	66.5	66.2	66.3	66.8	67.6	68.6	69.8	71.1	72.5	73.8	74.9	75.9	76.6	77.1	77.1	76.8	76.0	74.9	73.4	71.6	69.4	67.1	64.5	61.9	59.3	56.7	54.3	52.2	50.2	48.7	47.5	46.6	46.2	46.2	46.5	47.2	48.2	49.3	50.6	52.0	53.4	54.7	55.8	56.7	57.2	57.5	57.4	56.8	55.9	54.6	53.0	51.0	48.8	46.4	43.9	41.3	38.8	36.4	34.2	32.3	30.6	29.3	28.4	28.0
96.9	96.0	94.8	93.1	91.1	88.9	86.5	83.9	81.2	78.6	76.1	73.7	71.6	69.8	68.4	67.3	66.6	66.4	66.4	66.9	67.7	68.7	69.9	71.2	72.5	73.8	74.9	75.9	76.6	77.0	77.0	76.7	75.9	74.8	73.3	71.4	69.3	66.9	64.3	61.7	59.1	56.5	54.1	51.8	49.9	48.3	47.1	46.3	45.8	45.8	46.1	46.8	47.7	48.9	50.1	51.5	52.9	54.1	55.2	56.1	56.7	56.9	56.8	56.2	55.3	54.0	52.3	50.4	48.1	45.7	43.2	40.6	38.0	35.6	33.4	31.4	29.8	28.5	27.6	27.1
97.3	96.4	95.1	93.5	91.5	89.2	86.8	84.2	81.5	78.9	76.3	74.0	71.9	70.1	68.6	67.5	66.8	66.5	66.6	67.0	67.8	68.7	69.9	71.2	72.5	73.8	74.9	75.9	76.6	77.0	77.0	76.6	75.8	74.7	73.1	71.3	69.1	66.7	64.1	61.5	58.8	56.2	53.8	51.6	49.6	48.0	46.8	45.9	45.5	45.4	45.7	46.4	47.3	48.4	49.7	51.1	52.4	53.6	54.7	55.6	56.1	56.4	56.2	55.7	54.7	53.4	51.7	49.7	47.5	45.0	42.5	39.9	37.3	34.9	32.7	30.7	29.0	27.7	26.8	26.3