# MODFLOW2005 Discretization Input File
# Test Problem 3 for UPW Package and NWT Solver
 1  80  80  1  4  0
 0
 CONSTANT 100.0  DELR
 CONSTANT 100.0  DELC
 CONSTANT 200.0  TOP OF MODEL
INTERNAL  1.0  (FREE)  0
34.92	35.48	36.05	36.62	37.19	37.76	38.33	38.90	39.48	40.06	40.64	41.22	41.80	42.38	42.96	43.54	44.13	44.71	45.30	45.89	46.47	47.06	47.65	48.24	48.82	49.41	50.00	50.59	51.18	51.76	52.35	52.94	53.53	54.11	54.70	55.29	55.87	56.46	57.04	57.62	58.20	58.78	59.36	59.94	60.52	61.10	61.67	62.24	62.81	63.38	63.95	64.52	65.08	65.65	66.21	66.77	67.32	67.88	68.43	68.98	69.53	70.08	70.62	71.16	71.70	72.23	72.77	73.30	73.82	74.35	74.87	75.39	75.90	76.41	76.92	77.42	77.93	78.42	78.92	79.41
35.93	36.46	36.98	37.48	37.97	38.46	38.94	39.41	39.88	40.36	40.84	41.33	41.83	42.34	42.87	43.41	43.97	44.54	45.14	45.74	46.36	46.99	47.63	48.27	48.92	49.56	50.20	50.83	51.45	52.05	52.64	53.22	53.78	54.32	54.85	55.37	55.87	56.36	56.84	57.32	57.80	58.28	58.77	59.26	59.76	60.28	60.80	61.35	61.90	62.47	63.06	63.65	64.26	64.87	65.49	66.10	66.72	67.32	67.92	68.51	69.08	69.64	70.18	70.70	71.20	71.69	72.16	72.61	73.05	73.48	73.90	74.32	74.73	75.15	75.57	76.00	76.44	76.89	77.35	77.82
36.98	37.47	37.94	38.38	38.80	39.19	39.57	39.95	40.31	40.69	41.07	41.46	41.88	42.32	42.79	43.29	43.82	44.39	44.99	45.61	46.26	46.93	47.62	48.32	49.02	49.71	50.39	51.06	51.71	52.34	52.93	53.49	54.02	54.52	54.99	55.43	55.85	56.24	56.63	57.00	57.38	57.76	58.14	58.55	58.98	59.43	59.91	60.42	60.96	61.53	62.13	62.75	63.39	64.05	64.72	65.39	66.06	66.72	67.36	67.98	68.58	69.15	69.68	70.19	70.65	71.09	71.49	71.86	72.22	72.55	72.87	73.19	73.50	73.82	74.16	74.51	74.88	75.28	75.70	76.15
38.06	38.53	38.94	39.32	39.65	39.96	40.24	40.51	40.77	41.04	41.32	41.62	41.95	42.32	42.73	43.19	43.70	44.25	44.85	45.49	46.17	46.88	47.62	48.36	49.12	49.86	50.59	51.30	51.97	52.61	53.21	53.75	54.26	54.71	55.11	55.48	55.81	56.11	56.39	56.66	56.93	57.21	57.50	57.82	58.17	58.55	58.98	59.46	59.98	60.55	61.16	61.81	62.49	63.19	63.91	64.64	65.36	66.07	66.75	67.41	68.03	68.61	69.14	69.62	70.05	70.43	70.76	71.06	71.32	71.56	71.78	71.99	72.20	72.43	72.67	72.94	73.25	73.59	73.98	74.41
39.19	39.61	39.97	40.28	40.54	40.75	40.94	41.10	41.26	41.42	41.59	41.80	42.05	42.34	42.69	43.11	43.58	44.12	44.73	45.39	46.09	46.84	47.62	48.42	49.22	50.01	50.79	51.53	52.23	52.88	53.48	54.01	54.48	54.88	55.23	55.52	55.76	55.97	56.14	56.31	56.47	56.64	56.83	57.06	57.33	57.65	58.03	58.48	58.98	59.54	60.16	60.84	61.55	62.30	63.07	63.84	64.62	65.37	66.10	66.79	67.43	68.01	68.54	68.99	69.38	69.71	69.98	70.19	70.37	70.51	70.62	70.73	70.84	70.97	71.12	71.31	71.55	71.84	72.20	72.61
40.34	40.73	41.03	41.27	41.45	41.57	41.66	41.71	41.76	41.82	41.89	42.00	42.16	42.38	42.68	43.04	43.49	44.01	44.62	45.29	46.02	46.81	47.63	48.47	49.32	50.16	50.98	51.76	52.49	53.15	53.74	54.25	54.69	55.05	55.33	55.54	55.69	55.80	55.88	55.93	55.99	56.05	56.15	56.28	56.48	56.73	57.06	57.46	57.95	58.51	59.14	59.83	60.58	61.37	62.18	63.01	63.83	64.64	65.41	66.13	66.78	67.37	67.89	68.32	68.67	68.94	69.14	69.28	69.36	69.40	69.41	69.41	69.42	69.45	69.51	69.63	69.80	70.03	70.34	70.73
41.52	41.87	42.12	42.29	42.39	42.42	42.40	42.35	42.29	42.24	42.21	42.23	42.30	42.44	42.67	42.99	43.41	43.92	44.52	45.20	45.96	46.78	47.64	48.53	49.43	50.32	51.17	51.98	52.73	53.41	53.99	54.49	54.89	55.20	55.41	55.55	55.61	55.62	55.59	55.54	55.49	55.45	55.44	55.49	55.60	55.79	56.06	56.43	56.89	57.44	58.08	58.80	59.58	60.41	61.27	62.14	63.01	63.86	64.67	65.42	66.09	66.69	67.19	67.60	67.91	68.12	68.25	68.31	68.30	68.24	68.15	68.04	67.95	67.88	67.85	67.88	67.98	68.16	68.44	68.80
42.73	43.04	43.24	43.33	43.35	43.28	43.17	43.01	42.84	42.68	42.55	42.47	42.45	42.52	42.69	42.96	43.34	43.84	44.43	45.13	45.91	46.76	47.66	48.60	49.54	50.47	51.37	52.21	52.98	53.66	54.24	54.71	55.08	55.34	55.49	55.54	55.52	55.43	55.30	55.14	54.97	54.83	54.72	54.68	54.71	54.83	55.05	55.38	55.81	56.36	57.00	57.74	58.55	59.41	60.32	61.24	62.16	63.05	63.89	64.67	65.36	65.96	66.45	66.83	67.10	67.26	67.32	67.29	67.18	67.03	66.83	66.62	66.43	66.26	66.14	66.08	66.12	66.24	66.47	66.81
43.97	44.23	44.37	44.40	44.33	44.17	43.95	43.69	43.42	43.15	42.91	42.73	42.63	42.62	42.72	42.95	43.29	43.77	44.36	45.07	45.87	46.75	47.69	48.66	49.65	50.62	51.55	52.42	53.21	53.90	54.48	54.93	55.26	55.46	55.55	55.53	55.41	55.22	54.98	54.72	54.44	54.19	53.99	53.85	53.80	53.85	54.02	54.30	54.72	55.25	55.90	56.65	57.49	58.39	59.34	60.31	61.27	62.20	63.08	63.88	64.59	65.19	65.66	66.02	66.24	66.34	66.33	66.22	66.03	65.77	65.47	65.16	64.85	64.59	64.37	64.24	64.20	64.27	64.46	64.77
45.22	45.44	45.52	45.48	45.33	45.08	44.76	44.39	44.00	43.63	43.29	43.01	42.82	42.73	42.77	42.95	43.26	43.71	44.30	45.01	45.83	46.74	47.72	48.74	49.76	50.77	51.74	52.64	53.44	54.14	54.70	55.14	55.43	55.58	55.60	55.50	55.29	55.01	54.66	54.28	53.90	53.54	53.24	53.01	52.87	52.86	52.97	53.22	53.60	54.13	54.78	55.55	56.41	57.35	58.34	59.35	60.35	61.32	62.23	63.06	63.78	64.38	64.84	65.16	65.35	65.39	65.31	65.11	64.83	64.47	64.07	63.65	63.24	62.87	62.57	62.35	62.25	62.26	62.41	62.69
46.49	46.67	46.69	46.58	46.34	46.00	45.58	45.10	44.61	44.12	43.68	43.31	43.03	42.86	42.84	42.96	43.24	43.67	44.25	44.97	45.81	46.75	47.76	48.81	49.88	50.92	51.92	52.85	53.67	54.37	54.92	55.33	55.58	55.68	55.64	55.45	55.16	54.77	54.32	53.84	53.35	52.88	52.48	52.15	51.94	51.85	51.91	52.12	52.48	52.99	53.64	54.43	55.31	56.29	57.31	58.36	59.41	60.41	61.35	62.20	62.93	63.53	63.98	64.27	64.41	64.40	64.24	63.97	63.59	63.13	62.63	62.10	61.59	61.12	60.73	60.43	60.25	60.21	60.31	60.57
47.77	47.91	47.87	47.69	47.37	46.93	46.41	45.83	45.23	44.64	44.09	43.62	43.25	43.01	42.92	42.99	43.23	43.64	44.22	44.94	45.79	46.76	47.80	48.89	49.99	51.07	52.10	53.05	53.89	54.59	55.13	55.52	55.73	55.78	55.66	55.40	55.02	54.53	53.98	53.38	52.78	52.22	51.71	51.29	51.00	50.84	50.84	51.00	51.34	51.84	52.49	53.29	54.20	55.20	56.26	57.35	58.43	59.48	60.45	61.31	62.06	62.65	63.08	63.35	63.44	63.37	63.14	62.78	62.31	61.76	61.15	60.52	59.91	59.34	58.85	58.47	58.22	58.12	58.19	58.42
49.07	49.16	49.07	48.81	48.41	47.88	47.26	46.57	45.86	45.16	44.51	43.94	43.49	43.17	43.02	43.04	43.24	43.63	44.19	44.92	45.79	46.77	47.84	48.97	50.11	51.22	52.28	53.25	54.10	54.80	55.33	55.69	55.87	55.86	55.67	55.34	54.86	54.28	53.62	52.92	52.21	51.54	50.93	50.42	50.05	49.82	49.76	49.88	50.19	50.68	51.33	52.14	53.07	54.10	55.20	56.32	57.44	58.52	59.51	60.40	61.15	61.74	62.16	62.39	62.44	62.31	62.01	61.57	61.01	60.35	59.64	58.91	58.20	57.53	56.95	56.49	56.17	56.01	56.03	56.23
50.37	50.42	50.27	49.94	49.45	48.83	48.11	47.32	46.51	45.70	44.95	44.28	43.74	43.35	43.13	43.10	43.26	43.63	44.18	44.91	45.79	46.80	47.90	49.05	50.22	51.37	52.46	53.44	54.30	55.00	55.53	55.86	55.99	55.93	55.68	55.26	54.69	54.01	53.25	52.44	51.63	50.85	50.15	49.55	49.09	48.79	48.68	48.76	49.04	49.51	50.16	50.98	51.93	52.99	54.11	55.27	56.43	57.53	58.56	59.46	60.22	60.80	61.20	61.40	61.41	61.22	60.85	60.33	59.67	58.92	58.11	57.28	56.46	55.70	55.03	54.49	54.10	53.88	53.85	54.03
51.68	51.68	51.47	51.07	50.51	49.79	48.97	48.08	47.16	46.25	45.40	44.64	44.01	43.54	43.25	43.17	43.30	43.63	44.18	44.91	45.80	46.82	47.95	49.13	50.34	51.51	52.62	53.63	54.50	55.20	55.71	56.01	56.10	55.99	55.67	55.17	54.52	53.74	52.88	51.97	51.05	50.17	49.36	48.67	48.13	47.77	47.60	47.63	47.88	48.34	48.99	49.81	50.78	51.86	53.02	54.21	55.40	56.53	57.58	58.50	59.26	59.84	60.22	60.39	60.35	60.10	59.66	59.06	58.31	57.47	56.55	55.62	54.70	53.84	53.09	52.46	52.00	51.73	51.66	51.80
52.99	52.94	52.68	52.21	51.56	50.76	49.84	48.85	47.82	46.81	45.85	45.00	44.28	43.74	43.39	43.25	43.34	43.66	44.18	44.91	45.82	46.86	48.01	49.22	50.45	51.66	52.79	53.81	54.69	55.38	55.88	56.16	56.21	56.04	55.65	55.08	54.34	53.46	52.50	51.48	50.46	49.48	48.58	47.80	47.18	46.74	46.51	46.51	46.73	47.16	47.81	48.64	49.62	50.73	51.92	53.14	54.35	55.52	56.59	57.52	58.29	58.86	59.22	59.36	59.27	58.96	58.46	57.77	56.94	55.99	54.98	53.95	52.93	51.98	51.13	50.43	49.90	49.57	49.46	49.57
54.30	54.21	53.89	53.35	52.61	51.72	50.71	49.61	48.49	47.37	46.32	45.37	44.57	43.95	43.54	43.35	43.40	43.69	44.20	44.93	45.84	46.90	48.07	49.31	50.57	51.80	52.95	53.99	54.87	55.56	56.04	56.29	56.30	56.07	55.62	54.97	54.14	53.18	52.11	50.99	49.87	48.78	47.79	46.92	46.22	45.72	45.43	45.38	45.57	45.99	46.63	47.47	48.47	49.59	50.81	52.06	53.30	54.49	55.58	56.52	57.29	57.86	58.20	58.30	58.17	57.81	57.23	56.46	55.54	54.51	53.40	52.26	51.15	50.10	49.17	48.39	47.79	47.41	47.25	47.33
55.60	55.47	55.09	54.48	53.67	52.69	51.58	50.39	49.16	47.94	46.79	45.75	44.87	44.17	43.70	43.46	43.47	43.73	44.23	44.95	45.87	46.95	48.14	49.40	50.68	51.93	53.11	54.16	55.04	55.73	56.19	56.41	56.38	56.10	55.59	54.86	53.94	52.88	51.72	50.50	49.28	48.09	47.00	46.05	45.27	44.70	44.36	44.27	44.42	44.83	45.46	46.30	47.31	48.46	49.69	50.97	52.24	53.45	54.56	55.51	56.29	56.84	57.16	57.23	57.05	56.63	55.99	55.14	54.14	53.01	51.80	50.57	49.36	48.23	47.21	46.35	45.68	45.24	45.04	45.09
56.90	56.72	56.28	55.60	54.71	53.65	52.45	51.16	49.83	48.52	47.27	46.14	45.18	44.41	43.87	43.58	43.55	43.78	44.27	44.99	45.91	47.00	48.21	49.49	50.79	52.07	53.26	54.32	55.21	55.89	56.33	56.52	56.45	56.12	55.54	54.74	53.74	52.59	51.33	50.01	48.68	47.41	46.22	45.18	44.33	43.69	43.29	43.16	43.28	43.67	44.29	45.13	46.16	47.32	48.58	49.88	51.17	52.41	53.53	54.50	55.27	55.81	56.11	56.15	55.93	55.45	54.74	53.81	52.72	51.50	50.21	48.88	47.58	46.35	45.25	44.31	43.58	43.08	42.84	42.86
58.18	57.96	57.46	56.72	55.75	54.60	53.31	51.92	50.50	49.09	47.76	46.54	45.49	44.65	44.05	43.71	43.64	43.85	44.32	45.03	45.95	47.05	48.28	49.58	50.90	52.20	53.40	54.48	55.37	56.04	56.47	56.63	56.51	56.13	55.48	54.61	53.53	52.28	50.93	49.52	48.09	46.72	45.45	44.32	43.39	42.69	42.24	42.06	42.15	42.52	43.13	43.98	45.01	46.19	47.47	48.79	50.11	51.36	52.50	53.47	54.24	54.78	55.05	55.06	54.79	54.26	53.48	52.48	51.31	50.00	48.61	47.19	45.79	44.48	43.29	42.28	41.49	40.94	40.65	40.64
59.45	59.18	58.63	57.82	56.78	55.55	54.17	52.69	51.17	49.67	48.24	46.94	45.81	44.90	44.24	43.85	43.74	43.92	44.37	45.08	46.00	47.11	48.35	49.67	51.01	52.32	53.54	54.62	55.52	56.18	56.59	56.72	56.56	56.13	55.42	54.47	53.31	51.98	50.53	49.03	47.51	46.04	44.68	43.48	42.47	41.70	41.20	40.98	41.04	41.38	41.99	42.83	43.87	45.07	46.36	47.71	49.04	50.31	51.46	52.44	53.21	53.74	53.99	53.96	53.65	53.06	52.21	51.14	49.89	48.49	47.01	45.50	44.02	42.62	41.35	40.27	39.41	38.81	38.48	38.43
60.70	60.39	59.79	58.91	57.80	56.48	55.02	53.45	51.84	50.24	48.73	47.34	46.14	45.16	44.43	44.00	43.85	44.00	44.44	45.13	46.06	47.18	48.43	49.76	51.12	52.45	53.68	54.77	55.66	56.31	56.70	56.80	56.61	56.12	55.35	54.33	53.09	51.67	50.14	48.54	46.93	45.37	43.93	42.64	41.56	40.73	40.17	39.91	39.94	40.26	40.86	41.70	42.75	43.95	45.27	46.63	47.98	49.27	50.43	51.41	52.18	52.69	52.92	52.86	52.50	51.86	50.95	49.81	48.48	47.00	45.43	43.83	42.26	40.78	39.43	38.28	37.36	36.70	36.33	36.25
61.93	61.58	60.92	59.98	58.80	57.41	55.85	54.20	52.50	50.82	49.21	47.75	46.47	45.42	44.64	44.15	43.97	44.09	44.51	45.20	46.12	47.24	48.51	49.85	51.23	52.57	53.81	54.90	55.79	56.43	56.80	56.87	56.64	56.10	55.27	54.18	52.86	51.37	49.74	48.05	46.36	44.71	43.18	41.82	40.67	39.78	39.17	38.86	38.86	39.16	39.75	40.58	41.64	42.85	44.18	45.56	46.93	48.23	49.40	50.39	51.15	51.65	51.86	51.76	51.36	50.66	49.69	48.48	47.07	45.51	43.86	42.18	40.52	38.96	37.54	36.31	35.33	34.62	34.21	34.11
63.14	62.74	62.03	61.03	59.78	58.31	56.68	54.94	53.15	51.39	49.70	48.15	46.80	45.69	44.85	44.31	44.09	44.19	44.59	45.27	46.19	47.31	48.59	49.95	51.33	52.68	53.93	55.02	55.91	56.54	56.89	56.93	56.66	56.07	55.18	54.03	52.63	51.06	49.35	47.58	45.79	44.06	42.45	41.01	39.80	38.84	38.18	37.83	37.80	38.08	38.66	39.49	40.54	41.77	43.11	44.50	45.89	47.20	48.37	49.36	50.12	50.61	50.79	50.66	50.22	49.47	48.44	47.16	45.68	44.04	42.31	40.54	38.80	37.16	35.67	34.38	33.34	32.58	32.13	31.99
64.32	63.88	63.12	62.06	60.74	59.20	57.49	55.66	53.80	51.95	50.18	48.56	47.13	45.96	45.07	44.48	44.23	44.29	44.67	45.34	46.26	47.39	48.67	50.04	51.43	52.79	54.05	55.14	56.02	56.65	56.97	56.99	56.67	56.03	55.09	53.87	52.41	50.75	48.97	47.11	45.24	43.43	41.74	40.23	38.94	37.93	37.22	36.83	36.77	37.03	37.59	38.42	39.47	40.71	42.06	43.46	44.86	46.18	47.36	48.35	49.10	49.57	49.74	49.58	49.09	48.29	47.21	45.86	44.30	42.59	40.78	38.93	37.12	35.40	33.83	32.48	31.38	30.57	30.08	29.92
65.47	64.99	64.18	63.06	61.68	60.07	58.28	56.38	54.43	52.50	50.66	48.96	47.47	46.23	45.29	44.66	44.36	44.40	44.76	45.42	46.34	47.47	48.75	50.13	51.53	52.90	54.16	55.25	56.13	56.74	57.04	57.03	56.68	55.99	54.99	53.71	52.18	50.45	48.58	46.64	44.70	42.81	41.04	39.46	38.11	37.04	36.29	35.86	35.77	36.00	36.55	37.37	38.43	39.67	41.02	42.44	43.84	45.17	46.36	47.35	48.09	48.55	48.69	48.50	47.98	47.13	45.98	44.57	42.95	41.16	39.27	37.35	35.46	33.67	32.04	30.62	29.47	28.61	28.08	27.89
66.58	66.06	65.21	64.04	62.59	60.91	59.05	57.07	55.05	53.05	51.13	49.36	47.80	46.51	45.51	44.84	44.51	44.52	44.86	45.51	46.42	47.55	48.83	50.22	51.63	53.00	54.26	55.36	56.22	56.82	57.11	57.06	56.67	55.94	54.89	53.54	51.94	50.15	48.21	46.19	44.17	42.20	40.36	38.72	37.31	36.18	35.38	34.91	34.79	35.01	35.54	36.35	37.41	38.65	40.01	41.44	42.85	44.18	45.37	46.36	47.10	47.54	47.66	47.44	46.87	45.98	44.78	43.31	41.62	39.76	37.80	35.81	33.84	31.98	30.28	28.81	27.60	26.70	26.14	25.91
67.66	67.11	66.20	64.98	63.47	61.73	59.80	57.75	55.66	53.58	51.59	49.76	48.14	46.78	45.74	45.02	44.66	44.64	44.97	45.60	46.50	47.63	48.92	50.30	51.72	53.09	54.36	55.45	56.31	56.89	57.16	57.08	56.66	55.88	54.78	53.38	51.71	49.85	47.84	45.75	43.65	41.61	39.71	38.00	36.53	35.35	34.50	34.00	33.85	34.04	34.56	35.37	36.42	37.66	39.03	40.46	41.88	43.22	44.41	45.39	46.12	46.55	46.64	46.39	45.79	44.85	43.60	42.07	40.32	38.39	36.36	34.30	32.27	30.34	28.58	27.05	25.79	24.85	24.24	23.99
68.71	68.11	67.17	65.89	64.33	62.52	60.53	58.41	56.25	54.10	52.04	50.15	48.47	47.06	45.97	45.21	44.81	44.77	45.07	45.69	46.59	47.71	49.00	50.39	51.81	53.18	54.45	55.53	56.39	56.95	57.20	57.10	56.63	55.82	54.67	53.21	51.49	49.55	47.48	45.32	43.15	41.05	39.08	37.30	35.78	34.55	33.66	33.12	32.94	33.11	33.61	34.41	35.46	36.70	38.08	39.51	40.93	42.27	43.47	44.45	45.16	45.57	45.64	45.36	44.73	43.74	42.44	40.86	39.04	37.06	34.96	32.83	30.74	28.75	26.93	25.34	24.04	23.05	22.41	22.14
69.71	69.08	68.09	66.77	65.15	63.28	61.23	59.05	56.82	54.61	52.49	50.53	48.80	47.34	46.20	45.40	44.97	44.90	45.19	45.79	46.68	47.80	49.08	50.47	51.89	53.27	54.53	55.61	56.45	57.01	57.23	57.10	56.61	55.75	54.55	53.04	51.26	49.27	47.12	44.90	42.67	40.50	38.47	36.63	35.06	33.79	32.85	32.28	32.07	32.22	32.70	33.49	34.54	35.78	37.15	38.59	40.01	41.36	42.55	43.52	44.23	44.62	44.67	44.36	43.69	42.66	41.32	39.68	37.81	35.76	33.61	31.42	29.26	27.21	25.34	23.70	22.34	21.32	20.65	20.34
70.66	70.00	68.97	67.60	65.94	64.01	61.90	59.66	57.37	55.10	52.92	50.91	49.12	47.61	46.43	45.59	45.13	45.04	45.30	45.89	46.77	47.88	49.17	50.55	51.97	53.35	54.61	55.68	56.51	57.05	57.25	57.10	56.57	55.67	54.43	52.87	51.04	48.98	46.78	44.50	42.20	39.98	37.89	36.00	34.37	33.05	32.08	31.47	31.23	31.36	31.83	32.61	33.65	34.89	36.26	37.70	39.13	40.47	41.65	42.62	43.32	43.69	43.72	43.38	42.68	41.61	40.22	38.54	36.61	34.51	32.30	30.05	27.83	25.73	23.80	22.12	20.72	19.66	18.95	18.62
71.57	70.88	69.81	68.40	66.68	64.71	62.54	60.25	57.90	55.57	53.34	51.27	49.43	47.88	46.66	45.79	45.30	45.18	45.42	46.00	46.86	47.97	49.25	50.63	52.05	53.42	54.67	55.74	56.56	57.08	57.26	57.08	56.52	55.59	54.31	52.70	50.81	48.71	46.45	44.11	41.76	39.48	37.33	35.39	33.72	32.36	31.35	30.71	30.44	30.55	31.01	31.77	32.80	34.04	35.41	36.85	38.27	39.61	40.79	41.75	42.43	42.79	42.80	42.44	41.70	40.60	39.16	37.43	35.46	33.30	31.04	28.73	26.47	24.31	22.34	20.60	19.17	18.07	17.34	16.98
72.44	71.71	70.61	69.16	67.40	65.38	63.16	60.81	58.41	56.03	53.74	51.63	49.74	48.15	46.88	45.98	45.46	45.32	45.54	46.10	46.96	48.06	49.33	50.71	52.12	53.49	54.73	55.79	56.60	57.11	57.27	57.06	56.47	55.51	54.18	52.53	50.60	48.44	46.13	43.74	41.34	39.00	36.81	34.82	33.10	31.70	30.65	29.98	29.69	29.78	30.22	30.98	32.00	33.23	34.60	36.03	37.45	38.78	39.96	40.91	41.58	41.93	41.91	41.52	40.75	39.62	38.14	36.37	34.35	32.15	29.83	27.48	25.16	22.96	20.94	19.16	17.69	16.56	15.80	15.42
73.25	72.49	71.35	69.87	68.07	66.00	63.74	61.34	58.89	56.46	54.13	51.97	50.04	48.41	47.11	46.18	45.63	45.46	45.67	46.21	47.06	48.14	49.41	50.78	52.19	53.55	54.79	55.84	56.63	57.12	57.26	57.03	56.41	55.41	54.05	52.36	50.39	48.19	45.83	43.39	40.94	38.55	36.31	34.28	32.52	31.08	30.00	29.30	28.99	29.06	29.48	30.23	31.24	32.46	33.82	35.25	36.66	37.99	39.16	40.10	40.76	41.09	41.06	40.64	39.84	38.68	37.17	35.35	33.29	31.04	28.68	26.28	23.92	21.68	19.61	17.80	16.29	15.13	14.34	13.94
74.00	73.22	72.05	70.53	68.69	66.59	64.28	61.85	59.35	56.88	54.51	52.30	50.34	48.67	47.33	46.37	45.80	45.61	45.80	46.32	47.15	48.23	49.49	50.85	52.25	53.60	54.83	55.87	56.65	57.12	57.25	56.99	56.35	55.32	53.92	52.19	50.18	47.94	45.54	43.05	40.56	38.13	35.85	33.78	31.98	30.51	29.40	28.67	28.34	28.38	28.79	29.52	30.52	31.74	33.09	34.51	35.92	37.24	38.40	39.33	39.98	40.29	40.24	39.80	38.97	37.78	36.23	34.38	32.28	30.00	27.60	25.15	22.75	20.47	18.37	16.52	14.98	13.79	12.97	12.55
74.71	73.90	72.70	71.15	69.28	67.14	64.79	62.32	59.79	57.27	54.86	52.62	50.62	48.92	47.56	46.57	45.97	45.76	45.92	46.44	47.25	48.32	49.56	50.92	52.31	53.65	54.87	55.89	56.66	57.12	57.22	56.94	56.28	55.22	53.79	52.03	49.98	47.70	45.26	42.74	40.20	37.74	35.42	33.31	31.48	29.98	28.84	28.09	27.73	27.76	28.15	28.87	29.86	31.06	32.40	33.82	35.22	36.53	37.68	38.60	39.23	39.53	39.45	38.99	38.15	36.92	35.35	33.46	31.33	29.01	26.57	24.09	21.65	19.33	17.20	15.32	13.75	12.53	11.69	11.25
75.35	74.52	73.30	71.72	69.82	67.64	65.27	62.76	60.19	57.64	55.20	52.93	50.89	49.16	47.77	46.76	46.13	45.90	46.05	46.55	47.35	48.40	49.64	50.98	52.36	53.69	54.90	55.91	56.66	57.10	57.19	56.89	56.20	55.12	53.66	51.87	49.79	47.48	45.00	42.44	39.87	37.37	35.02	32.88	31.02	29.49	28.33	27.55	27.17	27.18	27.56	28.26	29.24	30.43	31.76	33.17	34.56	35.86	37.00	37.91	38.52	38.80	38.71	38.23	37.36	36.11	34.51	32.60	30.43	28.08	25.61	23.10	20.63	18.28	16.12	14.21	12.61	11.37	10.51	10.05
75.94	75.09	73.84	72.24	70.31	68.11	65.70	63.16	60.57	57.99	55.52	53.22	51.16	49.40	47.98	46.94	46.30	46.05	46.18	46.66	47.45	48.49	49.71	51.04	52.41	53.73	54.92	55.92	56.66	57.08	57.15	56.83	56.11	55.01	53.53	51.71	49.60	47.26	44.76	42.17	39.57	37.04	34.66	32.49	30.61	29.05	27.86	27.07	26.67	26.66	27.02	27.71	28.67	29.85	31.17	32.57	33.95	35.24	36.36	37.26	37.86	38.12	38.01	37.52	36.62	35.35	33.72	31.79	29.60	27.22	24.72	22.18	19.69	17.31	15.12	13.19	11.57	10.30	9.43	8.95
76.47	75.59	74.33	72.70	70.75	68.53	66.10	63.53	60.91	58.31	55.81	53.49	51.41	49.62	48.19	47.13	46.47	46.20	46.31	46.78	47.55	48.57	49.78	51.10	52.45	53.75	54.93	55.92	56.64	57.05	57.10	56.76	56.03	54.90	53.40	51.56	49.43	47.06	44.53	41.92	39.29	36.74	34.33	32.15	30.24	28.66	27.45	26.63	26.22	26.19	26.53	27.21	28.16	29.32	30.63	32.01	33.38	34.66	35.77	36.65	37.24	37.49	37.36	36.84	35.93	34.64	32.99	31.04	28.83	26.42	23.90	21.34	18.82	16.42	14.21	12.26	10.62	9.34	8.44	7.95
76.93	76.04	74.76	73.11	71.14	68.90	66.45	63.87	61.23	58.61	56.09	53.74	51.64	49.84	48.39	47.31	46.63	46.35	46.44	46.89	47.65	48.66	49.85	51.15	52.49	53.78	54.94	55.91	56.62	57.01	57.04	56.68	55.93	54.79	53.27	51.41	49.26	46.87	44.33	41.69	39.05	36.47	34.05	31.84	29.91	28.31	27.09	26.25	25.82	25.78	26.11	26.76	27.70	28.85	30.14	31.51	32.86	34.13	35.22	36.09	36.66	36.89	36.75	36.22	35.29	33.98	32.32	30.35	28.12	25.69	23.16	20.58	18.04	15.62	13.39	11.42	9.77	8.47	7.56	7.05
77.33	76.43	75.13	73.47	71.49	69.23	66.77	64.17	61.51	58.88	56.34	53.98	51.87	50.05	48.58	47.49	46.79	46.49	46.57	47.01	47.75	48.74	49.91	51.20	52.52	53.79	54.94	55.89	56.58	56.95	56.97	56.60	55.83	54.67	53.14	51.26	49.10	46.70	44.14	41.48	38.83	36.24	33.80	31.57	29.63	28.02	26.78	25.93	25.48	25.42	25.73	26.37	27.29	28.43	29.71	31.06	32.40	33.64	34.73	35.58	36.13	36.35	36.20	35.65	34.71	33.38	31.70	29.72	27.47	25.04	22.49	19.90	17.34	14.91	12.67	10.69	9.02	7.71	6.79	6.26
77.67	76.75	75.44	73.77	71.78	69.51	67.04	64.43	61.76	59.12	56.57	54.20	52.08	50.25	48.77	47.66	46.95	46.64	46.70	47.12	47.84	48.82	49.97	51.24	52.54	53.80	54.93	55.86	56.54	56.89	56.90	56.51	55.73	54.56	53.01	51.12	48.95	46.54	43.96	41.30	38.63	36.04	33.58	31.35	29.40	27.77	26.52	25.66	25.19	25.12	25.42	26.04	26.95	28.06	29.33	30.66	31.98	33.21	34.28	35.11	35.65	35.86	35.69	35.13	34.17	32.84	31.15	29.15	26.90	24.45	21.89	19.29	16.74	14.29	12.04	10.05	8.38	7.05	6.12	5.59
77.95	77.02	75.70	74.02	72.01	69.74	67.26	64.65	61.98	59.33	56.78	54.41	52.27	50.44	48.94	47.83	47.11	46.78	46.83	47.23	47.94	48.89	50.03	51.28	52.56	53.80	54.91	55.83	56.48	56.83	56.81	56.42	55.62	54.44	52.88	50.99	48.80	46.39	43.81	41.15	38.47	35.87	33.41	31.17	29.21	27.58	26.32	25.44	24.97	24.88	25.16	25.77	26.66	27.76	29.00	30.31	31.62	32.83	33.88	34.70	35.22	35.41	35.23	34.66	33.69	32.35	30.65	28.65	26.39	23.94	21.38	18.78	16.21	13.77	11.52	9.52	7.83	6.51	5.56	5.02
78.15	77.22	75.89	74.21	72.20	69.93	67.45	64.83	62.16	59.51	56.96	54.59	52.45	50.61	49.11	47.99	47.26	46.92	46.96	47.34	48.03	48.97	50.09	51.32	52.58	53.79	54.89	55.78	56.42	56.75	56.72	56.31	55.51	54.32	52.76	50.86	48.67	46.26	43.68	41.01	38.34	35.74	33.28	31.04	29.07	27.44	26.17	25.28	24.80	24.70	24.96	25.56	26.42	27.51	28.73	30.02	31.31	32.50	33.53	34.33	34.84	35.02	34.82	34.24	33.27	31.92	30.22	28.22	25.96	23.51	20.95	18.35	15.78	13.34	11.09	9.09	7.40	6.07	5.12	4.56
78.30	77.35	76.02	74.34	72.33	70.06	67.59	64.98	62.31	59.67	57.12	54.75	52.62	50.78	49.28	48.15	47.41	47.06	47.08	47.45	48.12	49.04	50.14	51.35	52.59	53.78	54.85	55.73	56.35	56.67	56.62	56.21	55.40	54.20	52.64	50.74	48.55	46.14	43.57	40.91	38.24	35.64	33.19	30.95	28.98	27.35	26.07	25.18	24.69	24.58	24.83	25.40	26.25	27.31	28.52	29.79	31.05	32.22	33.24	34.02	34.51	34.68	34.47	33.88	32.91	31.55	29.85	27.85	25.60	23.15	20.60	18.00	15.45	13.01	10.76	8.76	7.07	5.74	4.78	4.22
78.37	77.42	76.09	74.41	72.41	70.15	67.68	65.08	62.43	59.79	57.26	54.89	52.76	50.93	49.43	48.30	47.55	47.19	47.20	47.56	48.21	49.11	50.19	51.37	52.59	53.76	54.81	55.67	56.28	56.57	56.52	56.09	55.28	54.08	52.52	50.62	48.44	46.04	43.47	40.83	38.17	35.58	33.13	30.90	28.94	27.31	26.03	25.14	24.63	24.51	24.75	25.31	26.14	27.18	28.36	29.61	30.85	32.00	32.99	33.76	34.24	34.39	34.17	33.58	32.60	31.25	29.55	27.55	25.31	22.87	20.33	17.74	15.20	12.77	10.53	8.54	6.86	5.52	4.57	4.00
78.38	77.43	76.10	74.42	72.43	70.18	67.73	65.15	62.51	59.89	57.37	55.02	52.90	51.07	49.57	48.44	47.69	47.32	47.32	47.66	48.30	49.17	50.23	51.39	52.59	53.73	54.76	55.60	56.19	56.47	56.41	55.97	55.15	53.96	52.40	50.51	48.34	45.95	43.40	40.77	38.13	35.55	33.12	30.90	28.95	27.32	26.05	25.15	24.64	24.51	24.73	25.28	26.09	27.11	28.27	29.49	30.71	31.84	32.81	33.55	34.02	34.15	33.93	33.33	32.35	31.00	29.31	27.33	25.09	22.67	20.14	17.58	15.05	12.63	10.40	8.42	6.75	5.42	4.46	3.89
78.32	77.37	76.05	74.38	72.40	70.17	67.73	65.17	62.55	59.95	57.45	55.12	53.01	51.19	49.71	48.58	47.83	47.45	47.44	47.76	48.38	49.24	50.27	51.41	52.58	53.70	54.71	55.53	56.09	56.36	56.29	55.85	55.03	53.84	52.28	50.41	48.26	45.88	43.35	40.74	38.12	35.56	33.15	30.95	29.01	27.39	26.12	25.22	24.71	24.57	24.78	25.30	26.09	27.09	28.23	29.43	30.62	31.72	32.67	33.40	33.85	33.97	33.74	33.14	32.16	30.82	29.14	27.17	24.95	22.55	20.04	17.49	14.99	12.59	10.38	8.41	6.75	5.43	4.47	3.90
78.19	77.24	75.93	74.28	72.32	70.10	67.69	65.15	62.56	59.99	57.51	55.20	53.11	51.31	49.83	48.71	47.96	47.58	47.56	47.87	48.46	49.30	50.31	51.42	52.56	53.66	54.64	55.44	55.99	56.25	56.16	55.72	54.90	53.71	52.17	50.31	48.18	45.83	43.32	40.74	38.14	35.61	33.22	31.03	29.11	27.50	26.24	25.35	24.83	24.68	24.88	25.39	26.16	27.14	28.25	29.42	30.59	31.67	32.59	33.30	33.74	33.85	33.61	33.01	32.04	30.70	29.04	27.08	24.89	22.51	20.03	17.50	15.02	12.65	10.46	8.51	6.86	5.55	4.60	4.02
77.99	77.05	75.75	74.11	72.18	69.98	67.60	65.09	62.53	59.99	57.54	55.26	53.19	51.41	49.94	48.83	48.08	47.70	47.67	47.96	48.54	49.36	50.34	51.42	52.54	53.61	54.57	55.35	55.88	56.12	56.03	55.58	54.77	53.59	52.07	50.23	48.12	45.79	43.31	40.76	38.19	35.69	33.33	31.17	29.27	27.67	26.42	25.53	25.01	24.86	25.05	25.54	26.29	27.24	28.32	29.47	30.61	31.67	32.57	33.26	33.68	33.78	33.54	32.94	31.97	30.65	29.00	27.07	24.89	22.55	20.09	17.60	15.15	12.81	10.64	8.72	7.08	5.78	4.84	4.27
77.73	76.80	75.51	73.90	71.98	69.82	67.47	65.00	62.47	59.96	57.55	55.29	53.26	51.50	50.05	48.94	48.20	47.81	47.78	48.06	48.62	49.41	50.37	51.43	52.51	53.56	54.49	55.25	55.76	55.99	55.89	55.45	54.64	53.47	51.96	50.14	48.06	45.77	43.33	40.80	38.28	35.81	33.48	31.35	29.47	27.90	26.66	25.77	25.26	25.10	25.27	25.75	26.48	27.40	28.46	29.58	30.69	31.72	32.60	33.27	33.67	33.77	33.52	32.92	31.96	30.66	29.03	27.12	24.98	22.66	20.24	17.79	15.37	13.06	10.92	9.03	7.41	6.13	5.19	4.62
77.41	76.48	75.21	73.62	71.73	69.61	67.29	64.86	62.37	59.91	57.53	55.31	53.31	51.57	50.14	49.05	48.31	47.93	47.88	48.15	48.69	49.46	50.39	51.42	52.48	53.50	54.41	55.14	55.64	55.85	55.75	55.30	54.50	53.35	51.86	50.07	48.02	45.76	43.36	40.88	38.39	35.96	33.67	31.57	29.72	28.17	26.95	26.07	25.56	25.39	25.56	26.02	26.72	27.62	28.65	29.75	30.83	31.83	32.69	33.33	33.72	33.81	33.56	32.96	32.02	30.73	29.12	27.24	25.14	22.86	20.48	18.06	15.68	13.41	11.31	9.44	7.85	6.58	5.66	5.10
77.01	76.10	74.85	73.28	71.43	69.34	67.07	64.68	62.24	59.82	57.49	55.31	53.34	51.63	50.22	49.15	48.42	48.04	47.98	48.24	48.76	49.51	50.41	51.41	52.44	53.43	54.31	55.02	55.50	55.71	55.60	55.15	54.36	53.23	51.76	50.00	47.99	45.77	43.41	40.98	38.53	36.15	33.90	31.84	30.02	28.49	27.29	26.43	25.92	25.75	25.90	26.34	27.03	27.90	28.91	29.97	31.02	31.99	32.83	33.45	33.83	33.90	33.65	33.06	32.13	30.86	29.29	27.44	25.37	23.13	20.80	18.42	16.09	13.86	11.80	9.96	8.40	7.15	6.24	5.68
76.56	75.66	74.43	72.89	71.08	69.03	66.81	64.47	62.08	59.70	57.42	55.28	53.35	51.68	50.30	49.24	48.52	48.14	48.08	48.33	48.83	49.55	50.43	51.40	52.40	53.36	54.21	54.90	55.36	55.56	55.44	55.00	54.22	53.11	51.67	49.95	47.97	45.80	43.49	41.10	38.71	36.37	34.17	32.15	30.37	28.87	27.68	26.84	26.33	26.16	26.30	26.73	27.39	28.24	29.21	30.24	31.27	32.21	33.02	33.63	33.98	34.05	33.80	33.22	32.30	31.06	29.51	27.70	25.67	23.48	21.20	18.87	16.59	14.40	12.38	10.58	9.05	7.82	6.93	6.38
76.03	75.16	73.95	72.45	70.67	68.67	66.50	64.21	61.88	59.56	57.32	55.23	53.35	51.71	50.36	49.32	48.62	48.24	48.18	48.41	48.90	49.59	50.44	51.38	52.35	53.28	54.11	54.77	55.22	55.40	55.28	54.85	54.08	52.99	51.58	49.89	47.96	45.84	43.58	41.25	38.91	36.63	34.47	32.50	30.76	29.29	28.13	27.30	26.80	26.63	26.76	27.17	27.81	28.64	29.58	30.58	31.57	32.48	33.26	33.85	34.19	34.26	34.01	33.43	32.53	31.31	29.80	28.03	26.05	23.91	21.68	19.41	17.17	15.04	13.06	11.30	9.81	8.61	7.73	7.19
75.45	74.59	73.42	71.95	70.22	68.27	66.15	63.92	61.64	59.38	57.20	55.17	53.33	51.73	50.41	49.40	48.71	48.33	48.27	48.49	48.96	49.63	50.45	51.36	52.30	53.20	53.99	54.63	55.06	55.23	55.12	54.69	53.94	52.87	51.50	49.85	47.97	45.90	43.70	41.42	39.14	36.92	34.82	32.89	31.19	29.76	28.63	27.82	27.33	27.15	27.28	27.67	28.29	29.09	30.00	30.96	31.92	32.81	33.56	34.13	34.46	34.51	34.27	33.70	32.82	31.63	30.16	28.43	26.50	24.42	22.24	20.03	17.85	15.77	13.84	12.13	10.67	9.50	8.64	8.11
74.81	73.97	72.83	71.40	69.71	67.81	65.75	63.59	61.37	59.18	57.06	55.08	53.29	51.74	50.45	49.47	48.79	48.42	48.36	48.57	49.02	49.66	50.45	51.33	52.24	53.11	53.88	54.49	54.90	55.06	54.95	54.52	53.79	52.75	51.42	49.81	47.98	45.97	43.83	41.62	39.41	37.25	35.20	33.33	31.67	30.28	29.18	28.39	27.91	27.73	27.85	28.23	28.82	29.59	30.47	31.40	32.33	33.18	33.91	34.46	34.77	34.82	34.58	34.03	33.17	32.01	30.58	28.90	27.02	24.99	22.87	20.73	18.61	16.59	14.72	13.05	11.63	10.49	9.65	9.13
74.10	73.29	72.18	70.79	69.16	67.32	65.32	63.22	61.08	58.95	56.90	54.98	53.24	51.73	50.49	49.53	48.87	48.51	48.44	48.64	49.07	49.69	50.46	51.30	52.17	53.01	53.75	54.34	54.73	54.89	54.77	54.36	53.65	52.63	51.34	49.78	48.01	46.06	43.98	41.84	39.69	37.60	35.62	33.80	32.20	30.85	29.78	29.01	28.54	28.37	28.48	28.84	29.41	30.15	30.99	31.89	32.79	33.61	34.31	34.83	35.13	35.18	34.94	34.40	33.57	32.44	31.05	29.43	27.61	25.64	23.59	21.51	19.45	17.49	15.68	14.06	12.69	11.58	10.77	10.26
73.34	72.55	71.48	70.14	68.56	66.78	64.85	62.82	60.75	58.69	56.71	54.85	53.17	51.71	50.51	49.58	48.94	48.59	48.52	48.71	49.12	49.72	50.45	51.27	52.10	52.91	53.62	54.19	54.56	54.71	54.59	54.19	53.50	52.52	51.27	49.76	48.05	46.16	44.16	42.09	40.01	37.99	36.07	34.32	32.77	31.46	30.42	29.67	29.22	29.05	29.15	29.50	30.05	30.76	31.57	32.44	33.29	34.09	34.76	35.26	35.55	35.59	35.35	34.83	34.02	32.94	31.59	30.02	28.26	26.36	24.38	22.36	20.38	18.49	16.73	15.17	13.84	12.77	11.98	11.49
72.52	71.76	70.73	69.43	67.91	66.20	64.34	62.38	60.39	58.40	56.49	54.71	53.09	51.68	50.52	49.63	49.01	48.67	48.60	48.78	49.17	49.74	50.45	51.23	52.03	52.80	53.48	54.02	54.38	54.52	54.40	54.02	53.35	52.40	51.20	49.75	48.09	46.28	44.35	42.35	40.35	38.40	36.56	34.87	33.37	32.11	31.11	30.39	29.95	29.79	29.88	30.21	30.74	31.42	32.20	33.03	33.85	34.61	35.25	35.73	36.01	36.04	35.81	35.31	34.53	33.48	32.19	30.67	28.98	27.15	25.24	23.30	21.39	19.56	17.88	16.37	15.09	14.05	13.30	12.82
71.65	70.92	69.92	68.68	67.22	65.57	63.79	61.91	60.00	58.09	56.26	54.54	52.99	51.64	50.52	49.66	49.07	48.74	48.68	48.84	49.22	49.77	50.44	51.18	51.95	52.69	53.34	53.86	54.20	54.33	54.21	53.84	53.20	52.29	51.13	49.74	48.15	46.41	44.55	42.64	40.72	38.85	37.08	35.45	34.02	32.81	31.85	31.15	30.73	30.57	30.66	30.97	31.48	32.12	32.87	33.67	34.45	35.18	35.79	36.25	36.51	36.54	36.32	35.84	35.09	34.08	32.84	31.38	29.76	28.00	26.17	24.31	22.47	20.72	19.10	17.65	16.42	15.43	14.70	14.25
70.73	70.03	69.07	67.89	66.49	64.91	63.21	61.41	59.58	57.76	56.01	54.36	52.88	51.59	50.52	49.70	49.13	48.81	48.75	48.91	49.26	49.78	50.42	51.13	51.87	52.57	53.19	53.68	54.01	54.13	54.02	53.66	53.05	52.18	51.07	49.74	48.22	46.55	44.78	42.95	41.11	39.32	37.63	36.07	34.70	33.54	32.62	31.96	31.55	31.40	31.48	31.78	32.26	32.88	33.59	34.35	35.10	35.79	36.38	36.81	37.06	37.09	36.88	36.42	35.70	34.73	33.54	32.15	30.59	28.92	27.16	25.38	23.63	21.96	20.41	19.02	17.84	16.89	16.20	15.76