# MODFLOW-NWT Name File
# Problem 3 
LIST  7 Pr3_MFNWT_lower.lst
BAS6  1 Pr3.bas
DIS  10 Pr3.dis
UPW  11 Pr3.upw
RCH  18 Pr3_lower.rch
NWT  13 Pr3.nwt
OC   22 Pr3.oc