# NWT Input File
# Test Problem 3 for MODFLOW-NWT
#  HEADTOL   FLUXTOL MXITEROUT THICKFACT   LINMETH    IPRNWT    IBOTAV OPTIONS    CONTINUE DBDREDUCE    DBDINC  DBDGAMMA   MOMFACT  BACKFLAG  MXBACKIT   BACKTOL   BACKRED
    1.0E-5      0.05       100    1.0e-6         2         1         1 SPECIFIED  CONTINUE      0.90   0.00001       0.0      0.10         1        30      1.05       0.9  linmeth=1 (GMRES); =2 (xmd)  
         2         1         3         7         1       0.0         1    1.0E-5    1.0e-5       200   XMD
