# SFR Package for MODFLOW2000
# Mar09 Segments renumbered for GSFLOW cascades
# Mar09 Stevenson streambed elev adjusted per RTK-GPS
 377  21  0  0  8.640000e+004  1.000000e-006  -51  51
  1  131  163  1  1  33.370000
  1  131  162  1  2  10.350000
  1  130  162  1  3  92.040000
  1  130  161  1  4  20.020000
  1  129  161  1  5  63.870000
  1  129  160  1  6  75.780000
  1  129  159  1  7  34.650000
  1  130  159  1  8  43.570000
  1  130  158  1  9  80.880000
  1  130  157  1  10  51.290000
  1  131  157  1  11  37.840000
  1  131  156  1  12  75.520000
  1  131  155  1  13  76.490000
  1  131  154  1  14  75.880000
  1  131  153  1  15  93.660000
  1  131  152  1  16  96.770000
  1  131  151  1  17  36.250000
  1  132  151  1  18  93.970000
  1  132  150  1  19  56.160000
  1  133  150  1  20  21.610000
  1  133  149  1  21  3.000000
  1  132  149  1  22  83.880000
  1  132  148  1  23  75.870000
  1  132  147  1  24  108.480000
  1  132  146  1  25  79.350000
  1  132  145  1  26  78.330000
  1  132  144  1  27  124.830000
  1  131  144  1  28  96.060000
  1  131  143  1  29  59.570000
  1  132  143  1  30  35.330000
  1  86  133  2  1  26.440000
  1  87  133  2  2  61.690000
  1  87  132  2  3  37.880000
  1  88  132  2  4  46.810000
  1  88  131  2  5  76.400000
  1  87  131  2  6  15.830000
  1  87  130  2  7  89.690000
  1  87  129  2  8  12.660000
  1  86  129  2  9  84.060000
  1  86  128  2  10  41.530000
  1  85  128  2  11  77.810000
  1  85  127  2  12  43.490000
  1  84  127  2  13  76.880000
  1  83  127  2  14  35.170000
  1  83  126  2  15  44.300000
  1  82  126  2  16  95.700000
  1  81  126  2  17  10.970000
  1  81  125  2  18  72.640000
  1  80  125  2  19  58.840000
  1  80  124  2  20  76.800000
  1  80  123  2  21  76.380000
  1  80  122  2  22  84.720000
  1  79  122  2  23  63.730000
  1  79  121  2  24  79.070000
  1  79  120  2  25  72.650000
  1  78  120  2  26  23.520000
  1  78  119  2  27  91.220000
  1  78  118  2  28  13.860000
  1  77  118  2  29  89.580000
  1  77  117  2  30  16.940000
  1  76  117  2  31  48.160000
  1  145  93  3  1  12.970000
  1  145  92  3  2  87.080000
  1  144  92  3  3  80.320000
  1  143  92  3  4  101.840000
  1  143  91  3  5  3.770000
  1  142  91  3  6  87.110000
  1  141  91  3  7  53.020000
  1  141  90  3  8  84.450000
  1  141  89  3  9  2.430000
  1  140  89  3  10  83.050000
  1  178  66  4  1  52.620000
  1  178  65  4  2  47.570000
  1  177  65  4  3  40.240000
  1  177  64  4  4  87.950000
  1  177  63  4  5  36.730000
  1  36  86  5  1  15.730000
  1  37  86  5  2  74.450000
  1  37  85  5  3  15.250000
  1  38  85  5  4  79.290000
  1  39  85  5  5  129.740000
  1  39  84  5  6  115.700000
  1  39  83  5  7  50.930000
  1  40  83  5  8  76.670000
  1  41  83  5  9  103.950000
  1  42  82  5  10  140.560000
  1  35  78  6  1  8.960000
  1  35  77  6  2  39.010000
  1  36  77  6  3  82.970000
  1  37  77  6  4  52.660000
  1  37  76  6  5  32.480000
  1  38  77  6  6  95.700000
  1  39  77  6  7  15.940000
  1  39  78  6  8  89.280000
  1  40  78  6  9  12.620000
  1  40  79  6  10  89.630000
  1  40  80  6  11  83.510000
  1  41  80  6  12  21.010000
  1  41  81  6  13  83.290000
  1  44  70  7  1  21.710000
  1  45  70  7  2  48.950000
  1  45  71  7  3  63.890000
  1  46  71  7  4  38.260000
  1  46  72  7  5  76.160000
  1  46  73  7  6  75.930000
  1  46  74  7  7  87.600000
  1  46  75  7  8  109.930000
  1  132  142  8  1  79.790000
  1  132  141  8  2  76.100000
  1  132  140  8  3  132.760000
  1  132  139  8  4  0.800000
  1  133  139  8  5  97.270000
  1  133  138  8  6  20.810000
  1  133  137  8  7  17.190000
  1  132  137  8  8  101.900000
  1  132  136  8  9  86.120000
  1  132  135  8  10  129.390000
  1  132  134  8  11  39.670000
  1  131  134  8  12  93.240000
  1  131  133  8  13  21.260000
  1  130  133  8  14  75.460000
  1  129  133  8  15  78.860000
  1  176  63  9  1  72.670000
  1  176  62  9  2  57.650000
  1  175  62  9  3  28.440000
  1  175  61  9  4  98.080000
  1  175  60  9  5  23.280000
  1  174  60  9  6  85.820000
  1  173  60  9  7  79.040000
  1  172  60  9  8  76.840000
  1  171  60  9  9  76.860000
  1  170  60  9  10  63.840000
  1  170  61  9  11  19.800000
  1  169  61  9  12  78.900000
  1  169  62  9  13  76.690000
  1  169  63  9  14  77.950000
  1  169  64  9  15  79.020000
  1  169  65  9  16  76.600000
  1  169  66  9  17  39.450000
  1  168  66  9  18  79.460000
  1  167  66  9  19  79.220000
  1  166  66  9  20  57.340000
  1  166  65  9  21  37.130000
  1  165  65  9  22  86.940000
  1  164  65  9  23  4.160000
  1  164  64  9  24  77.100000
  1  163  64  9  25  116.990000
  1  162  64  9  26  8.890000
  1  162  63  9  27  82.990000
  1  162  62  9  28  70.570000
  1  161  62  9  29  32.930000
  1  161  61  9  30  50.270000
  1  160  61  9  31  58.470000
  1  160  62  9  32  18.500000
  1  159  62  9  33  81.070000
  1  76  118  10  1  46.840000
  1  75  118  10  2  73.840000
  1  75  117  10  3  75.280000
  1  75  116  10  4  75.360000
  1  75  115  10  5  64.660000
  1  76  115  10  6  39.140000
  1  76  114  10  7  58.880000
  1  77  114  10  8  47.040000
  1  77  113  10  9  77.510000
  1  77  112  10  10  67.290000
  1  76  112  10  11  42.870000
  1  76  111  10  12  30.040000
  1  77  111  10  13  55.220000
  1  158  62  11  1  84.000000
  1  158  61  11  2  41.360000
  1  157  61  11  3  43.190000
  1  157  60  11  4  79.380000
  1  157  59  11  5  77.020000
  1  157  58  11  6  37.520000
  1  156  58  11  7  86.180000
  1  155  58  11  8  77.570000
  1  154  58  11  9  104.530000
  1  153  58  11  10  84.870000
  1  153  57  11  11  35.750000
  1  152  57  11  12  82.190000
  1  151  57  11  13  16.640000
  1  151  58  11  14  70.070000
  1  150  58  11  15  56.540000
  1  150  59  11  16  54.760000
  1  149  59  11  17  17.710000
  1  128  133  12  1  55.700000
  1  128  132  12  2  61.540000
  1  127  132  12  3  33.010000
  1  127  131  12  4  91.840000
  1  127  130  12  5  17.270000
  1  126  130  12  6  100.250000
  1  126  129  12  7  1.500000
  1  125  129  12  8  93.360000
  1  125  128  12  9  57.550000
  1  124  128  12  10  78.440000
  1  123  128  12  11  61.690000
  1  122  128  12  12  67.510000
  1  121  128  12  13  79.750000
  1  120  128  12  14  41.130000
  1  77  110  13  1  110.620000
  1  77  109  13  2  91.730000
  1  77  108  13  3  19.450000
  1  78  108  13  4  61.050000
  1  78  107  13  5  113.620000
  1  78  106  13  6  120.300000
  1  78  105  13  7  96.860000
  1  78  104  13  8  79.590000
  1  78  103  13  9  76.750000
  1  78  102  13  10  76.900000
  1  78  101  13  11  75.890000
  1  78  100  13  12  76.760000
  1  78  99  13  13  119.760000
  1  42  81  14  1  106.240000
  1  43  81  14  2  53.870000
  1  43  80  14  3  86.620000
  1  43  79  14  4  82.040000
  1  43  78  14  5  82.020000
  1  43  77  14  6  15.520000
  1  44  77  14  7  74.420000
  1  44  76  14  8  45.900000
  1  45  76  14  9  91.290000
  1  46  76  14  10  44.720000
  1  78  98  15  1  63.890000
  1  79  98  15  2  20.590000
  1  79  97  15  3  109.620000
  1  80  97  15  4  72.530000
  1  81  97  15  5  13.650000
  1  81  98  15  6  79.170000
  1  82  98  15  7  88.750000
  1  82  97  15  8  22.260000
  1  83  97  15  9  100.490000
  1  84  97  15  10  66.010000
  1  84  98  15  11  66.210000
  1  85  98  15  12  85.520000
  1  86  98  15  13  32.450000
  1  86  97  15  14  96.300000
  1  87  97  15  15  50.640000
  1  87  96  15  16  126.630000
  1  87  95  15  17  84.820000
  1  86  95  15  18  51.130000
  1  86  94  15  19  74.350000
  1  85  94  15  20  36.840000
  1  135  93  16  1  76.660000
  1  135  92  16  2  79.750000
  1  135  91  16  3  57.370000
  1  136  91  16  4  30.740000
  1  136  90  16  5  77.690000
  1  137  90  16  6  78.560000
  1  138  90  16  7  32.030000
  1  139  90  16  8  47.880000
  1  47  75  17  1  94.480000
  1  47  74  17  2  14.770000
  1  48  74  17  3  84.710000
  1  49  74  17  4  27.320000
  1  49  75  17  5  82.040000
  1  49  76  17  6  38.470000
  1  50  76  17  7  79.390000
  1  51  76  17  8  88.960000
  1  52  76  17  9  35.520000
  1  52  77  17  10  55.260000
  1  53  77  17  11  89.820000
  1  54  77  17  12  73.480000
  1  54  76  17  13  76.620000
  1  54  75  17  14  16.810000
  1  55  75  17  15  83.160000
  1  56  75  17  16  84.350000
  1  56  74  17  17  16.030000
  1  57  74  17  18  78.870000
  1  58  74  17  19  93.270000
  1  139  89  18  1  93.940000
  1  139  88  18  2  23.730000
  1  140  88  18  3  83.340000
  1  140  87  18  4  81.640000
  1  140  86  18  5  3.260000
  1  141  86  18  6  84.350000
  1  141  85  18  7  80.650000
  1  141  84  18  8  68.080000
  1  142  84  18  9  13.350000
  1  121  34  19  1  80.980000
  1  121  33  19  2  18.170000
  1  122  33  19  3  61.120000
  1  122  32  19  4  82.780000
  1  122  31  19  5  47.030000
  1  123  31  19  6  38.610000
  1  123  30  19  7  66.050000
  1  124  30  19  8  76.050000
  1  125  30  19  9  82.750000
  1  126  30  19  10  63.380000
  1  126  29  19  11  34.390000
  1  127  29  19  12  58.290000
  1  127  28  19  13  50.430000
  1  126  28  19  14  52.590000
  1  126  27  19  15  79.630000
  1  126  26  19  16  67.530000
  1  127  26  19  17  40.360000
  1  127  25  19  18  80.790000
  1  127  24  19  19  95.590000
  1  127  23  19  20  3.000000
  1  128  23  19  21  94.850000
  1  129  23  19  22  35.520000
  1  129  22  19  23  49.870000
  1  130  22  19  24  85.390000
  1  131  22  19  25  21.590000
  1  131  21  19  26  63.810000
  1  132  21  19  27  85.890000
  1  132  20  19  28  3.940000
  1  133  20  19  29  91.780000
  1  133  19  19  30  28.930000
  1  134  19  19  31  71.970000
  1  134  18  19  32  35.140000
  1  135  18  19  33  62.960000
  1  135  17  19  34  63.150000
  1  136  17  19  35  98.500000
  1  136  16  19  36  76.580000
  1  136  15  19  37  80.550000
  1  136  14  19  38  1.540000
  1  135  14  19  39  76.380000
  1  135  13  19  40  75.730000
  1  135  12  19  41  31.810000
  1  136  12  19  42  52.800000
  1  136  11  19  43  73.180000
  1  137  11  19  44  43.420000
  1  137  10  19  45  47.160000
  1  138  10  19  46  51.870000
  1  138  9  20  1  81.540000
  1  138  8  20  2  77.790000
  1  138  7  20  3  16.770000
  1  137  7  20  4  69.740000
  1  137  6  20  5  61.060000
  1  136  6  20  6  40.460000
  1  136  5  20  7  76.540000
  1  135  5  20  8  21.990000
  1  135  4  20  9  71.260000
  1  134  4  20  10  82.390000
  1  134  3  20  11  2.100000
  1  133  3  20  12  88.400000
  1  132  3  20  13  79.020000
  1  131  3  20  14  79.080000
  1  130  3  20  15  28.080000
  1  130  4  20  16  49.750000
  1  129  4  20  17  79.100000
  1  128  4  20  18  16.130000
  1  128  3  20  19  96.170000
  1  128  2  20  20  14.220000
  1  129  2  20  21  98.050000
  1  100  175  21  1  75.000000
  1  99  175  21  2  75.000000
  1  99  176  21  3  75.000000
  1  99  177  21  4  75.000000
  1  99  178  21  5  75.000000
  1  98  178  21  6  75.000000
  1  97  178  21  7  75.000000
  1  96  178  21  8  75.000000
  1  96  177  21  9  75.000000
  1  95  177  21  10  75.000000
  1  95  176  21  11  75.000000
  1  94  176  21  12  75.000000
  1  94  175  21  13  75.000000
  1  93  175  21  14  75.000000
  1  93  174  21  15  75.000000
  1  92  174  21  16  75.000000
  1  92  173  21  17  75.000000
  1  91  173  21  18  75.000000
  1  91  172  21  19  75.000000
  1  90  172  21  20  75.000000
  1  89  172  21  21  75.000000
  1  89  171  21  22  75.000000
  1  88  171  21  23  75.000000
  1  87  171  21  24  75.000000
  1  87  170  21  25  75.000000
  1  86  170  21  26  75.000000
  1  86  169  21  27  75.000000
  1  85  169  21  28  75.000000
  1  85  168  21  29  75.000000
  1  85  167  21  30  75.000000
  1  84  167  21  31  75.000000
  1  84  166  21  32  75.000000
21  0  0  0
 1  1  8  0  0.000000  0.000000  0.000000  0.000000  0.040000
1.1642867E-02    0.300000  498.390195  300.000000
1.1642867E-02    0.300000  496.890001  3.000000
 2  1  10  0  0.000000  0.000000  0.000000  0.000000  0.040000
 1.1389350E-02    0.300000  496.259903  125.000000
 1.1389350E-02    0.300000  495.019979  15.000000
 3  4  18  -21  3  0.000000  0.000000  0.000000  0.000000
1.0292560E+00    0.300000  497.770290
1.0292560E+00    0.300000  493.410003
3327.0422400 6654.0844800 9981.1267200
0.200000 0.300000 0.400000
2.000000 3.000000 4.000000
 4  4  9  -25  3   0.000  0.000000  0.000000  0.000000  0.040000
1.0292560E+00    0.300000  497.660113  1.800000
1.0292560E+00    0.300000  496.360125  1.800000
1703.868480 3407.736960 5111.605440
0.200000 0.300000 0.400000
2.000000 3.000000 4.000000
 5  1  14  0  0.000000  0.000000  0.000000  0.000000  0.040000
 1.0904577E-02   0.300000  493.970132  1.000000
 1.0904577E-02   0.300000  492.970052  3.000000
 6  1  14  0  0.000000  0.000000  0.000000  0.000000  0.040000
 1.0904577E-02   0.300000  493.970049  1.000000
 1.0904577E-02   0.300000  492.970142  3.000000
 7  1  17  0  0.000000  0.000000  0.000000  0.000000  0.040000
 1.0904577E-02   0.300000  492.950070  1.000000
 1.0904577E-02   0.300000  491.800034  3.000000
 8  1  12  0  0.000000  0.000000  0.000000  0.000000  0.040000
1.1642867E-02    0.300000  496.870000  3.000000
1.1642867E-02    0.300000  495.500000  5.000000
 9  1  11  0  0.000000  0.000000  0.000000  0.000000  0.040000
 8.5373371E-03   3.000000  496.340005  2.000000
 8.5373371E-03   3.000000  493.409836  2.000000
 10  1  13  0  0.000000  0.000000  0.000000  0.000000  0.040000
1.0292560E+00    0.300000  493.082000  4.000000
1.0292560E+00    0.300000  492.040000  4.000000
 11  1  -30  0  0.000000  0.000000  0.000000  0.000000  0.040000
1.0292560E+00    0.300000  492.409977  3.0000
1.0292560E+00    0.300000  491.700185  3.0000
 12  1  -28  0  0.000000  0.000000  0.000000  0.000000  0.040000
1.0292560E+00    0.300000  495.480000  5.000000
1.0292560E+00    0.300000  493.970008  7.000000
 13  1  15  0  0.000000  0.000000  0.000000  0.000000  0.040000
1.0292560E+00    0.300000  492.031000  4.000000
1.0292560E+00    0.300000  491.300000  4.000000
 14  1  17  0  0.000000  0.000000  0.000000  0.000000  0.040000
 1.0904577E-02   0.300000  492.950003  3.000000
 1.0904577E-02   0.300000  491.800002  3.000000
 15  1  -30  0  0.000000  0.000000  0.000000  0.000000  0.040000
 1.0309347E-02    0.300000  491.228000  4.000000
 1.0309347E-02    0.300000  490.858000  4.000000
 16  4  18  -28  5  0.000000  0.000000  0.000000  0.000000
1.0292560E+00    0.300000  494.04
1.0292560E+00    0.300000  492.639964
5.8691801E+03 19539.632000 30705.136000 41870.640000 53036.144000
0.040000 0.090000 0.150000 0.210000 0.270000
4.000000 5.000000 6.000000 7.000000 8.000000
 17  1  -30  0  0.000000  0.000000  0.000000  0.000000  0.040000
1.0292560E+00    0.300000  491.779873  3.00000
1.0292560E+00    0.300000  491.700008  3.00000
 18  1  -30  0  0.000000  0.000000  0.000000  0.000000  0.040000
1.0292560E+00    0.300000  493.390107  5.00000
1.0292560E+00    0.300000  491.700077  5.00000
 19  4  20  -30  7  0.000000  0.000000  0.000000  0.000000
1.0292560E+00    0.300000  491.62000
1.0292560E+00    0.300000  488.290020
795.16257021 4401.5750000 22246.440365 38136.566273 54026.692180 69916.818088 197037.82535
0.050000 0.080000 0.150000 0.200000 0.230000 0.260000 0.620000
1.000000 6.000000 8.000000 9.000000 10.000000 11.000000 12.000000
 20  1  0  0  0.000000  0.000000  0.000000  0.000000  0.040000
0.3    0.300000  488.290020  15.000000
0.3   0.300000  488.200000  15.000000
 21  1  -27  0  0.000000  0.000000  0.000000  0.000000  0.040000
 0.3  1.000000  504.996676  1.000000
 0.3  1.000000  501.483095  1.000000
 -1  0  0  0
