# HFB for MODFLOW, generated by Flopy.
        2        10         2
HFB1 HFB 1.00e-06 5
        1         3        10         3        11  
        1         4        10         4        11  
        1         5        10         5        11  
        1         6        10         6        11  
        1         7        10         7        11  
HFB2 HFB 1.0e-06 5
        1         8        10         8        11  10.0
        1         9        10         9        11  10.0
        1        10        10        10        11  10.0
        1        11        10        11        11  10.0
        1        12        10        12        11  10.0
        1        13        10        13        11  1.000000e-06
        1        14        10        14        11  1.000000e-06
        2
HFB2
HFB1
        
        
        
        
        0         0        12
        1         3        10         3        11  1.000000e-06
        1         4        10         4        11  1.000000e-06
        1         5        10         5        11  1.000000e-06
        1         6        10         6        11  1.000000e-06
        1         7        10         7        11  1.000000e-06
        1         8        10         8        11  1.000000e-06
        1         9        10         9        11  1.000000e-06
        1        10        10        10        11  1.000000e-06
        1        11        10        11        11  1.000000e-06
        1        12        10        12        11  1.000000e-06
        1        13        10        13        11  1.000000e-06
        1        14        10        14        11  1.000000e-06
        0        