# Discretization file for MODFLOW, generated by Flopy.
         1        18        20         1         4         2
  0
CONSTANT    1.600000E+04                           #delr                          
CONSTANT    1.600000E+04                           #delc                          
CONSTANT    3.000000E+01                           #model_top                     
CONSTANT   -1.000000E+03                           #botm Layer 1                  
   1000.000000          1000  1.000000  SS 
