# GHB for MODFLOW, generated by Flopy.
       262         0
       262         0 # stress period 0
         1         1         1  0.000000 15000.000000
         1         1         2  0.000000 15000.000000
         1         1         3  0.000000 15000.000000
         1         1         4  0.000000 15000.000000
         1         1         5  0.000000 15000.000000
         1         1         6  0.000000 15000.000000
         1         1         7  0.000000 15000.000000
         1         1         8  0.000000 15000.000000
         1         1         9  0.000000 15000.000000
         1         1        10  0.000000 15000.000000
         1         1        11  0.000000 15000.000000
         1         1        12  0.000000 15000.000000
         1         1        13  0.000000 15000.000000
         1         1        14  0.000000 15000.000000
         1         1        15  0.000000 15000.000000
         1         1        16  0.000000 15000.000000
         1         1        17  0.000000 15000.000000
         1         1        18  0.000000 15000.000000
         1         1        19  0.000000 15000.000000
         1         1        20  0.000000 15000.000000
         1         2         1  0.000000 15000.000000
         1         2         2  0.000000 15000.000000
         1         2         3  0.000000 15000.000000
         1         2         4  0.000000 15000.000000
         1         2         5  0.000000 15000.000000
         1         2         6  0.000000 15000.000000
         1         2         7  0.000000 15000.000000
         1         2         8  0.000000 15000.000000
         1         2         9  0.000000 15000.000000
         1         2        10  0.000000 15000.000000
         1         2        11  0.000000 15000.000000
         1         2        12  0.000000 15000.000000
         1         2        13  0.000000 15000.000000
         1         2        14  0.000000 15000.000000
         1         2        15  0.000000 15000.000000
         1         2        16  0.000000 15000.000000
         1         2        17  0.000000 15000.000000
         1         2        18  0.000000 15000.000000
         1         2        19  0.000000 15000.000000
         1         2        20  0.000000 15000.000000
         1         3         1  0.000000 15000.000000
         1         3         2  0.000000 15000.000000
         1         3         3  0.000000 15000.000000
         1         3         4  0.000000 15000.000000
         1         3         5  0.000000 15000.000000
         1         3         6  0.000000 15000.000000
         1         3         7  0.000000 15000.000000
         1         3         8  0.000000 15000.000000
         1         3         9  0.000000 15000.000000
         1         3        10  0.000000 15000.000000
         1         3        11  0.000000 15000.000000
         1         3        12  0.000000 15000.000000
         1         3        13  0.000000 15000.000000
         1         3        14  0.000000 15000.000000
         1         3        15  0.000000 15000.000000
         1         3        16  0.000000 15000.000000
         1         3        17  0.000000 15000.000000
         1         3        18  0.000000 15000.000000
         1         3        19  0.000000 15000.000000
         1         3        20  0.000000 15000.000000
         1         4         1  0.000000 15000.000000
         1         4         2  0.000000 15000.000000
         1         4         3  0.000000 15000.000000
         1         4         4  0.000000 15000.000000
         1         4         5  0.000000 15000.000000
         1         4         6  0.000000 15000.000000
         1         4         7  0.000000 15000.000000
         1         4         8  0.000000 15000.000000
         1         4        11  0.000000 15000.000000
         1         4        12  0.000000 15000.000000
         1         4        13  0.000000 15000.000000
         1         4        14  0.000000 15000.000000
         1         4        15  0.000000 15000.000000
         1         4        16  0.000000 15000.000000
         1         4        17  0.000000 15000.000000
         1         4        18  0.000000 15000.000000
         1         4        19  0.000000 15000.000000
         1         4        20  0.000000 15000.000000
         1         5         1  0.000000 15000.000000
         1         5         2  0.000000 15000.000000
         1         5         3  0.000000 15000.000000
         1         5         4  0.000000 15000.000000
         1         5         5  0.000000 15000.000000
         1         5         6  0.000000 15000.000000
         1         5         7  0.000000 15000.000000
         1         5        12  0.000000 15000.000000
         1         5        13  0.000000 15000.000000
         1         5        14  0.000000 15000.000000
         1         5        15  0.000000 15000.000000
         1         5        16  0.000000 15000.000000
         1         5        17  0.000000 15000.000000
         1         5        18  0.000000 15000.000000
         1         5        19  0.000000 15000.000000
         1         5        20  0.000000 15000.000000
         1         6         1  0.000000 15000.000000
         1         6         2  0.000000 15000.000000
         1         6         3  0.000000 15000.000000
         1         6         4  0.000000 15000.000000
         1         6         5  0.000000 15000.000000
         1         6         6  0.000000 15000.000000
         1         6        13  0.000000 15000.000000
         1         6        14  0.000000 15000.000000
         1         6        15  0.000000 15000.000000
         1         6        16  0.000000 15000.000000
         1         6        17  0.000000 15000.000000
         1         6        18  0.000000 15000.000000
         1         6        19  0.000000 15000.000000
         1         6        20  0.000000 15000.000000
         1         7         1  0.000000 15000.000000
         1         7         2  0.000000 15000.000000
         1         7         3  0.000000 15000.000000
         1         7        13  0.000000 15000.000000
         1         7        14  0.000000 15000.000000
         1         7        15  0.000000 15000.000000
         1         7        16  0.000000 15000.000000
         1         7        17  0.000000 15000.000000
         1         7        18  0.000000 15000.000000
         1         7        19  0.000000 15000.000000
         1         7        20  0.000000 15000.000000
         1         8         1  0.000000 15000.000000
         1         8         2  0.000000 15000.000000
         1         8         3  0.000000 15000.000000
         1         8        14  0.000000 15000.000000
         1         8        15  0.000000 15000.000000
         1         8        16  0.000000 15000.000000
         1         8        17  0.000000 15000.000000
         1         8        18  0.000000 15000.000000
         1         8        19  0.000000 15000.000000
         1         8        20  0.000000 15000.000000
         1         9         1  0.000000 15000.000000
         1         9         2  0.000000 15000.000000
         1         9         3  0.000000 15000.000000
         1         9         4  0.000000 15000.000000
         1         9        15  0.000000 15000.000000
         1         9        16  0.000000 15000.000000
         1         9        17  0.000000 15000.000000
         1         9        18  0.000000 15000.000000
         1         9        19  0.000000 15000.000000
         1         9        20  0.000000 15000.000000
         1        10         1  0.000000 15000.000000
         1        10         2  0.000000 15000.000000
         1        10         3  0.000000 15000.000000
         1        10         4  0.000000 15000.000000
         1        10        16  0.000000 15000.000000
         1        10        17  0.000000 15000.000000
         1        10        18  0.000000 15000.000000
         1        10        19  0.000000 15000.000000
         1        10        20  0.000000 15000.000000
         1        11         1  0.000000 15000.000000
         1        11         2  0.000000 15000.000000
         1        11         3  0.000000 15000.000000
         1        11         4  0.000000 15000.000000
         1        11         5  0.000000 15000.000000
         1        11        17  0.000000 15000.000000
         1        11        18  0.000000 15000.000000
         1        11        19  0.000000 15000.000000
         1        11        20  0.000000 15000.000000
         1        12         1  0.000000 15000.000000
         1        12         2  0.000000 15000.000000
         1        12         3  0.000000 15000.000000
         1        12         4  0.000000 15000.000000
         1        12         5  0.000000 15000.000000
         1        12        17  0.000000 15000.000000
         1        12        18  0.000000 15000.000000
         1        12        19  0.000000 15000.000000
         1        12        20  0.000000 15000.000000
         1        13         1  0.000000 15000.000000
         1        13         2  0.000000 15000.000000
         1        13         3  0.000000 15000.000000
         1        13         4  0.000000 15000.000000
         1        13         5  0.000000 15000.000000
         1        13         6  0.000000 15000.000000
         1        13        18  0.000000 15000.000000
         1        13        19  0.000000 15000.000000
         1        13        20  0.000000 15000.000000
         1        14         1  0.000000 15000.000000
         1        14         2  0.000000 15000.000000
         1        14         3  0.000000 15000.000000
         1        14         4  0.000000 15000.000000
         1        14         5  0.000000 15000.000000
         1        14         6  0.000000 15000.000000
         1        14        18  0.000000 15000.000000
         1        14        19  0.000000 15000.000000
         1        14        20  0.000000 15000.000000
         1        15         1  0.000000 15000.000000
         1        15         2  0.000000 15000.000000
         1        15         3  0.000000 15000.000000
         1        15         4  0.000000 15000.000000
         1        15         5  0.000000 15000.000000
         1        15         6  0.000000 15000.000000
         1        15         7  0.000000 15000.000000
         1        15         8  0.000000 15000.000000
         1        15         9  0.000000 15000.000000
         1        15        10  0.000000 15000.000000
         1        15        11  0.000000 15000.000000
         1        15        12  0.000000 15000.000000
         1        15        13  0.000000 15000.000000
         1        15        16  0.000000 15000.000000
         1        15        17  0.000000 15000.000000
         1        15        18  0.000000 15000.000000
         1        15        19  0.000000 15000.000000
         1        15        20  0.000000 15000.000000
         1        16         1  0.000000 15000.000000
         1        16         2  0.000000 15000.000000
         1        16         3  0.000000 15000.000000
         1        16         4  0.000000 15000.000000
         1        16         5  0.000000 15000.000000
         1        16         6  0.000000 15000.000000
         1        16         7  0.000000 15000.000000
         1        16         8  0.000000 15000.000000
         1        16         9  0.000000 15000.000000
         1        16        10  0.000000 15000.000000
         1        16        11  0.000000 15000.000000
         1        16        12  0.000000 15000.000000
         1        16        13  0.000000 15000.000000
         1        16        14  0.000000 15000.000000
         1        16        15  0.000000 15000.000000
         1        16        16  0.000000 15000.000000
         1        16        17  0.000000 15000.000000
         1        16        18  0.000000 15000.000000
         1        16        19  0.000000 15000.000000
         1        16        20  0.000000 15000.000000
         1        17         1  0.000000 15000.000000
         1        17         2  0.000000 15000.000000
         1        17         3  0.000000 15000.000000
         1        17         4  0.000000 15000.000000
         1        17         5  0.000000 15000.000000
         1        17         6  0.000000 15000.000000
         1        17         7  0.000000 15000.000000
         1        17         8  0.000000 15000.000000
         1        17         9  0.000000 15000.000000
         1        17        10  0.000000 15000.000000
         1        17        11  0.000000 15000.000000
         1        17        12  0.000000 15000.000000
         1        17        13  0.000000 15000.000000
         1        17        14  0.000000 15000.000000
         1        17        15  0.000000 15000.000000
         1        17        16  0.000000 15000.000000
         1        17        17  0.000000 15000.000000
         1        17        18  0.000000 15000.000000
         1        17        19  0.000000 15000.000000
         1        17        20  0.000000 15000.000000
         1        18         1  0.000000 15000.000000
         1        18         2  0.000000 15000.000000
         1        18         3  0.000000 15000.000000
         1        18         4  0.000000 15000.000000
         1        18         5  0.000000 15000.000000
         1        18         6  0.000000 15000.000000
         1        18         7  0.000000 15000.000000
         1        18         8  0.000000 15000.000000
         1        18         9  0.000000 15000.000000
         1        18        10  0.000000 15000.000000
         1        18        11  0.000000 15000.000000
         1        18        12  0.000000 15000.000000
         1        18        13  0.000000 15000.000000
         1        18        14  0.000000 15000.000000
         1        18        15  0.000000 15000.000000
         1        18        16  0.000000 15000.000000
         1        18        17  0.000000 15000.000000
         1        18        18  0.000000 15000.000000
         1        18        19  0.000000 15000.000000
         1        18        20  0.000000 15000.000000
        -1         0 # stress period 1
