# PCG for MODFLOW, generated by Flopy.
50 30 1 0 
0.0001 5.0 1.0 0 0 3 1.0 
