# Well file for MODFLOW, generated by Flopy.
       100         0
       100         0 # stress period 0
         1         4         9 818452.437500
         1         4        10 818452.437500
         1         5         8 818452.437500
         1         5         9 818452.437500
         1         5        10 818452.437500
         1         5        11 818452.437500
         1         6         7 818452.437500
         1         6         8 818452.437500
         1         6         9 818452.437500
         1         6        10 818452.437500
         1         6        11 818452.437500
         1         6        12 818452.437500
         1         7         4 818452.437500
         1         7         5 818452.437500
         1         7         6 818452.437500
         1         7         7 818452.437500
         1         7         8 818452.437500
         1         7         9 818452.437500
         1         7        10 818452.437500
         1         7        11 818452.437500
         1         7        12 818452.437500
         1         8         4 818452.437500
         1         8         5 818452.437500
         1         8         6 818452.437500
         1         8         7 818452.437500
         1         8         8 818452.437500
         1         8         9 818452.437500
         1         8        10 818452.437500
         1         8        11 818452.437500
         1         8        12 818452.437500
         1         8        13 818452.437500
         1         9         5 818452.437500
         1         9         6 818452.437500
         1         9         7 818452.437500
         1         9         8 818452.437500
         1         9         9 818452.437500
         1         9        10 818452.437500
         1         9        11 818452.437500
         1         9        12 818452.437500
         1         9        13 818452.437500
         1         9        14 818452.437500
         1        10         5 818452.437500
         1        10         6 818452.437500
         1        10         7 818452.437500
         1        10         8 818452.437500
         1        10         9 818452.437500
         1        10        10 818452.437500
         1        10        11 818452.437500
         1        10        12 818452.437500
         1        10        13 818452.437500
         1        10        14 818452.437500
         1        10        15 818452.437500
         1        11         6 818452.437500
         1        11         7 818452.437500
         1        11         8 818452.437500
         1        11         9 818452.437500
         1        11        10 818452.437500
         1        11        11 818452.437500
         1        11        12 818452.437500
         1        11        13 818452.437500
         1        11        14 818452.437500
         1        11        15 818452.437500
         1        11        16 818452.437500
         1        12         6 818452.437500
         1        12         7 818452.437500
         1        12         8 818452.437500
         1        12         9 818452.437500
         1        12        10 818452.437500
         1        12        11 818452.437500
         1        12        12 818452.437500
         1        12        13 818452.437500
         1        12        14 818452.437500
         1        12        15 818452.437500
         1        12        16 818452.437500
         1        13         7 818452.437500
         1        13         8 818452.437500
         1        13         9 818452.437500
         1        13        10 818452.437500
         1        13        11 818452.437500
         1        13        12 818452.437500
         1        13        13 818452.437500
         1        13        14 818452.437500
         1        13        15 818452.437500
         1        13        16 818452.437500
         1        13        17 818452.437500
         1        14         7 818452.437500
         1        14         8 818452.437500
         1        14         9 818452.437500
         1        14        10 818452.437500
         1        14        11 818452.437500
         1        14        12 818452.437500
         1        14        13 818452.437500
         1        14        14 818452.437500
         1        14        15 818452.437500
         1        14        16 818452.437500
         1        14        17 818452.437500
         1        15        14 818452.437500
         1        15        15 818452.437500
         1         9         8 -12031200.000000
         1        11        10 -10694400.000000
        -1         0 # stress period 1
