# Salt Water Intrusion (SWI2) package file for MODFLOW-2005, generated by Flopy.
#--Dataset 1
         1         1         0        55        56         0
#--Dataset 2a
         1         0         3
#--Dataset 3a
  4.000000e-02  4.000000e-02
#--Dataset 4
INTERNAL               1  (2G15.6)  -1 #nu                            
   0.000000E+00   2.500000E-02
#--Dataset 5
INTERNAL               1 (20G15.6)  -1 #zeta_1 Layer 1                
   0.000000E+00   0.000000E+00   0.000000E+00   0.000000E+00   0.000000E+00   0.000000E+00   0.000000E+00   0.000000E+00   0.000000E+00   0.000000E+00   0.000000E+00   0.000000E+00   0.000000E+00   0.000000E+00   0.000000E+00   0.000000E+00   0.000000E+00   0.000000E+00   0.000000E+00   0.000000E+00
   0.000000E+00   0.000000E+00   0.000000E+00   0.000000E+00   0.000000E+00   0.000000E+00   0.000000E+00   0.000000E+00   0.000000E+00   0.000000E+00   0.000000E+00   0.000000E+00   0.000000E+00   0.000000E+00   0.000000E+00   0.000000E+00   0.000000E+00   0.000000E+00   0.000000E+00   0.000000E+00
   0.000000E+00   0.000000E+00   0.000000E+00   0.000000E+00   0.000000E+00   0.000000E+00   0.000000E+00   0.000000E+00   0.000000E+00   0.000000E+00   0.000000E+00   0.000000E+00   0.000000E+00   0.000000E+00   0.000000E+00   0.000000E+00   0.000000E+00   0.000000E+00   0.000000E+00   0.000000E+00
   0.000000E+00   0.000000E+00   0.000000E+00   0.000000E+00   0.000000E+00   0.000000E+00   0.000000E+00   0.000000E+00  -6.000000E+02  -6.000000E+02   0.000000E+00   0.000000E+00   0.000000E+00   0.000000E+00   0.000000E+00   0.000000E+00   0.000000E+00   0.000000E+00   0.000000E+00   0.000000E+00
   0.000000E+00   0.000000E+00   0.000000E+00   0.000000E+00   0.000000E+00   0.000000E+00   0.000000E+00  -6.000000E+02  -6.000000E+02  -6.000000E+02  -6.000000E+02   0.000000E+00   0.000000E+00   0.000000E+00   0.000000E+00   0.000000E+00   0.000000E+00   0.000000E+00   0.000000E+00   0.000000E+00
   0.000000E+00   0.000000E+00   0.000000E+00   0.000000E+00   0.000000E+00   0.000000E+00  -6.000000E+02  -6.000000E+02  -6.000000E+02  -6.000000E+02  -6.000000E+02  -6.000000E+02   0.000000E+00   0.000000E+00   0.000000E+00   0.000000E+00   0.000000E+00   0.000000E+00   0.000000E+00   0.000000E+00
   0.000000E+00   0.000000E+00   0.000000E+00  -6.000000E+02  -6.000000E+02  -6.000000E+02  -6.000000E+02  -6.000000E+02  -6.000000E+02  -6.000000E+02  -6.000000E+02  -6.000000E+02   0.000000E+00   0.000000E+00   0.000000E+00   0.000000E+00   0.000000E+00   0.000000E+00   0.000000E+00   0.000000E+00
   0.000000E+00   0.000000E+00   0.000000E+00  -6.000000E+02  -6.000000E+02  -6.000000E+02  -6.000000E+02  -6.000000E+02  -6.000000E+02  -6.000000E+02  -6.000000E+02  -6.000000E+02  -6.000000E+02   0.000000E+00   0.000000E+00   0.000000E+00   0.000000E+00   0.000000E+00   0.000000E+00   0.000000E+00
   0.000000E+00   0.000000E+00   0.000000E+00   0.000000E+00  -6.000000E+02  -6.000000E+02  -6.000000E+02  -6.000000E+02  -6.000000E+02  -6.000000E+02  -6.000000E+02  -6.000000E+02  -6.000000E+02  -6.000000E+02   0.000000E+00   0.000000E+00   0.000000E+00   0.000000E+00   0.000000E+00   0.000000E+00
   0.000000E+00   0.000000E+00   0.000000E+00   0.000000E+00  -6.000000E+02  -6.000000E+02  -6.000000E+02  -6.000000E+02  -6.000000E+02  -6.000000E+02  -6.000000E+02  -6.000000E+02  -6.000000E+02  -6.000000E+02  -6.000000E+02   0.000000E+00   0.000000E+00   0.000000E+00   0.000000E+00   0.000000E+00
   0.000000E+00   0.000000E+00   0.000000E+00   0.000000E+00   0.000000E+00  -6.000000E+02  -6.000000E+02  -6.000000E+02  -6.000000E+02  -6.000000E+02  -6.000000E+02  -6.000000E+02  -6.000000E+02  -6.000000E+02  -6.000000E+02  -6.000000E+02   0.000000E+00   0.000000E+00   0.000000E+00   0.000000E+00
   0.000000E+00   0.000000E+00   0.000000E+00   0.000000E+00   0.000000E+00  -6.000000E+02  -6.000000E+02  -6.000000E+02  -6.000000E+02  -6.000000E+02  -6.000000E+02  -6.000000E+02  -6.000000E+02  -6.000000E+02  -6.000000E+02  -6.000000E+02   0.000000E+00   0.000000E+00   0.000000E+00   0.000000E+00
   0.000000E+00   0.000000E+00   0.000000E+00   0.000000E+00   0.000000E+00   0.000000E+00  -6.000000E+02  -6.000000E+02  -6.000000E+02  -6.000000E+02  -6.000000E+02  -6.000000E+02  -6.000000E+02  -6.000000E+02  -6.000000E+02  -6.000000E+02  -6.000000E+02   0.000000E+00   0.000000E+00   0.000000E+00
   0.000000E+00   0.000000E+00   0.000000E+00   0.000000E+00   0.000000E+00   0.000000E+00  -6.000000E+02  -6.000000E+02  -6.000000E+02  -6.000000E+02  -6.000000E+02  -6.000000E+02  -6.000000E+02  -6.000000E+02  -6.000000E+02  -6.000000E+02  -6.000000E+02   0.000000E+00   0.000000E+00   0.000000E+00
   0.000000E+00   0.000000E+00   0.000000E+00   0.000000E+00   0.000000E+00   0.000000E+00   0.000000E+00   0.000000E+00   0.000000E+00   0.000000E+00   0.000000E+00   0.000000E+00   0.000000E+00  -6.000000E+02  -6.000000E+02   0.000000E+00   0.000000E+00   0.000000E+00   0.000000E+00   0.000000E+00
   0.000000E+00   0.000000E+00   0.000000E+00   0.000000E+00   0.000000E+00   0.000000E+00   0.000000E+00   0.000000E+00   0.000000E+00   0.000000E+00   0.000000E+00   0.000000E+00   0.000000E+00   0.000000E+00   0.000000E+00   0.000000E+00   0.000000E+00   0.000000E+00   0.000000E+00   0.000000E+00
   0.000000E+00   0.000000E+00   0.000000E+00   0.000000E+00   0.000000E+00   0.000000E+00   0.000000E+00   0.000000E+00   0.000000E+00   0.000000E+00   0.000000E+00   0.000000E+00   0.000000E+00   0.000000E+00   0.000000E+00   0.000000E+00   0.000000E+00   0.000000E+00   0.000000E+00   0.000000E+00
   0.000000E+00   0.000000E+00   0.000000E+00   0.000000E+00   0.000000E+00   0.000000E+00   0.000000E+00   0.000000E+00   0.000000E+00   0.000000E+00   0.000000E+00   0.000000E+00   0.000000E+00   0.000000E+00   0.000000E+00   0.000000E+00   0.000000E+00   0.000000E+00   0.000000E+00   0.000000E+00
#--Dataset 6
CONSTANT    5.000000E-02                           #ssz Layer 1                   
#--Dataset 7
INTERNAL               1   (20I10)  -1 #isource Layer 1               
        -2        -2        -2        -2        -2        -2        -2        -2        -2        -2        -2        -2        -2        -2        -2        -2        -2        -2        -2        -2
        -2        -2        -2        -2        -2        -2        -2        -2        -2        -2        -2        -2        -2        -2        -2        -2        -2        -2        -2        -2
        -2        -2        -2        -2        -2        -2        -2        -2        -2        -2        -2        -2        -2        -2        -2        -2        -2        -2        -2        -2
        -2        -2        -2        -2        -2        -2        -2        -2         1         1        -2        -2        -2        -2        -2        -2        -2        -2        -2        -2
        -2        -2        -2        -2        -2        -2        -2         1         1         1         1        -2        -2        -2        -2        -2        -2        -2        -2        -2
        -2        -2        -2        -2        -2        -2         1         1         1         1         1         1        -2        -2        -2        -2        -2        -2        -2        -2
        -2        -2        -2         1         1         1         1         1         1         1         1         1        -2        -2        -2        -2        -2        -2        -2        -2
        -2        -2        -2         1         1         1         1         1         1         1         1         1         1        -2        -2        -2        -2        -2        -2        -2
        -2        -2        -2        -2         1         1         1         1         1         1         1         1         1         1        -2        -2        -2        -2        -2        -2
        -2        -2        -2        -2         1         1         1         1         1         1         1         1         1         1         1        -2        -2        -2        -2        -2
        -2        -2        -2        -2        -2         1         1         1         1         1         1         1         1         1         1         1        -2        -2        -2        -2
        -2        -2        -2        -2        -2         1         1         1         1         1         1         1         1         1         1         1        -2        -2        -2        -2
        -2        -2        -2        -2        -2        -2         1         1         1         1         1         1         1         1         1         1         1        -2        -2        -2
        -2        -2        -2        -2        -2        -2         1         1         1         1         1         1         1         1         1         1         1        -2        -2        -2
        -2        -2        -2        -2        -2        -2        -2        -2        -2        -2        -2        -2        -2         1         1        -2        -2        -2        -2        -2
        -2        -2        -2        -2        -2        -2        -2        -2        -2        -2        -2        -2        -2        -2        -2        -2        -2        -2        -2        -2
        -2        -2        -2        -2        -2        -2        -2        -2        -2        -2        -2        -2        -2        -2        -2        -2        -2        -2        -2        -2
        -2        -2        -2        -2        -2        -2        -2        -2        -2        -2        -2        -2        -2        -2        -2        -2        -2        -2        -2        -2
