# LPF for MODFLOW, generated by Flopy.
        53    -1E+30         2 
         1
         0
         1
         0
         0
LAY1_HK  HK  1.0  1
1 HKL1 ALL
LAY1_VKA VK  1.0  1
1 VKAL1 ALL
1
1
1
