begin options
  PRINT_OPTION SUMMARY
end options

begin nonlinear
  outer_hclose 1.e-4
  outer_maximum 500 
  under_relaxation none
end nonlinear

begin linear
  inner_hclose 1.0e-4
  inner_rclose 0.001
  #L2NORM_RCLOSE
  inner_maximum 100
  linear_acceleration cg
  scaling_method none
  REORDERING_METHOD none
  relaxation_factor 0.97
end linear



1.0E-4  1.0E-4   500    100  1 0 002              #hclose, hiclose,mxiter,iter1,iprsms,nonmeth,linmeth
#PCGU [option: "bcgs", "cg"] ipc iscl iord rclosepcgu relax
                         cg    3    0    0      0.001  0.97
#                       bcgs    3    0    0      0.001  0.97

1.0E-4  1.0E-4   500    100  1 0 001              #hclose, hiclose,mxiter,iter1,iprsms,nonmeth,linmeth
2    0      0     2     0       0      0        1e-3
IACL NORDER LEVEL NORTH IREDSYS RRCTOL IDROPTOL EPSRN 



    0.0001    0.0001       500       100         1         0         1
2    0      0     2     0       0      0        1e-3
IACL NORDER LEVEL NORTH IREDSYS RRCTOL IDROPTOL EPSRN 

    0.0001    0.0001       500       100         1         0         5
         3         0         0         100000
