BEGIN OPTIONS
END OPTIONS

BEGIN DIMENSIONS
  NCPL 200
  NLAY 4
  NVERT 121
END DIMENSIONS

BEGIN GRIDDATA
  TOP
    INTERNAL FACTOR 1.0
6.13   4.84   4.51   4.93   2.87   3.52   3.32   5.56   4.93   4.52
4.20   4.98   3.59   5.51   3.94   6.77   4.87   4.15   3.67   4.68
5.97   4.17   5.28   4.78   3.95   4.83   4.57   5.21   4.89   4.60
4.72   3.52   3.28   5.46   5.37   5.29   4.20   5.70   3.17   5.88
4.83   6.51   4.76   6.33   4.00   5.38   2.93   3.71   3.80   7.58
5.75   4.96   5.51   4.65   4.14   4.56   4.20   4.34   5.19   3.95
5.06   5.11   5.14   4.68   4.32   4.44   3.57   5.53   4.42   5.74
4.00   5.74   4.33   3.99   4.10   5.85   4.88   3.63   4.30   5.14
4.56   3.59   3.68   5.68   4.54   4.71   4.40   5.38   3.54   4.80
5.24   4.87   4.94   4.09   3.44   4.02   2.99   5.75   4.53   5.82
4.42   4.03   3.54   5.57   5.45   2.74   3.61   6.33   4.23   4.26
4.48   4.70   3.05   6.01   5.87   4.00   4.77   5.02   6.05   5.21
4.89   4.31   4.49   6.07   4.78   5.03   4.00   4.04   6.03   3.73
4.71   4.55   5.62   4.26   3.18   4.39   4.07   4.07   3.90   5.78
4.64   4.49   3.46   4.23   3.80   5.18   5.56   4.84   4.31   2.86
5.28   5.57   4.84   4.96   4.10   4.71   5.76   4.93   3.73   4.68
5.68   4.87   5.22   6.10   3.96   3.24   5.06   3.38   4.33   3.80
7.13   4.83   4.74   3.55   5.13   3.59   5.96   4.41   4.65   4.49
5.13   5.17   4.48   4.96   3.50   4.49   5.30   4.92   3.88   5.48
4.28   5.14   3.91   4.88   4.26   6.70   3.29   5.22   4.78   4.11
  BOTM LAYERED
    INTERNAL FACTOR 1.0
4.93   4.43   3.52   3.82   2.85   3.48   2.60   4.72   2.34   2.93
2.83   4.06   3.52   4.51   3.54   4.61   2.73   3.70   3.30   3.92
5.36   3.47   4.81   3.65   3.12   3.40   4.05   4.40   2.65   3.58
3.53   3.02   2.57   4.55   4.18   4.69   3.19   5.06   2.48   4.11
4.28   5.40   3.62   5.20   3.81   4.74   2.52   2.32   2.43   6.47
4.84   4.29   2.89   3.71   2.54   2.68   3.90   3.34   4.25   2.51
3.13   2.96   4.10   2.71   3.33   3.56   3.09   4.38   3.50   4.77
3.39   4.88   3.50   3.44   3.45   4.61   4.22   3.37   3.15   4.84
3.16   3.31   3.13   4.19   3.67   3.44   3.25   3.10   2.68   3.95
4.91   4.30   4.27   1.52   2.88   2.68   2.76   3.92   2.34   4.57
2.90   3.31   2.70   4.53   4.76   2.59   3.23   5.21   3.84   1.69
3.77   3.57   2.99   5.33   3.92   3.79   2.95   4.43   4.92   4.68
4.27   3.89   3.83   4.83   3.96   3.81   3.76   2.89   4.86   2.91
4.26   2.76   4.50   3.58   2.59   4.20   3.81   3.80   3.01   4.85
4.00   3.57   3.26   3.32   3.45   4.17   3.56   4.12   2.68   2.75
4.90   4.90   3.35   4.69   3.70   4.44   3.25   3.95   2.71   2.86
4.37   4.44   3.98   4.83   3.20   2.64   3.07   3.18   4.00   2.38
5.99   3.36   3.98   3.01   2.19   3.00   5.06   3.09   2.78   4.36
3.25   4.55   2.72   4.33   3.04   2.89   4.82   3.94   3.18   4.36
3.76   4.42   3.16   3.15   3.70   3.19   2.37   4.09   3.27   3.33
    INTERNAL FACTOR 1.0
2.35   3.52   0.56   3.19   2.18   2.15   2.11   2.50   1.96   2.86
1.59   3.09   2.80   1.71   2.86   3.57   2.60   3.25   2.47   2.80
1.25   2.25   4.10   3.27   3.09   2.74   3.46   1.48   2.38   0.40
2.71   1.45   0.86   3.37   2.77   2.27   2.48   3.82   0.72   3.46
3.18   0.64   2.71   2.04   2.18   3.49   2.15   1.53   1.91   5.43
3.64   2.51   2.18   3.20   1.23   1.87   2.91   2.26   1.63   1.71
2.60   1.91   3.36   2.00   2.29   1.82   2.49   3.58   2.26   3.43
1.27   4.35   2.98   0.95   2.51   2.01   3.38   2.55   1.69   3.51
2.56   2.30   2.84   3.35   2.41   1.66   2.17   2.50   2.21   2.79
4.07   3.71   1.94   1.07   1.96   2.57   2.53   2.33   1.37   4.07
2.86   2.76   1.26   2.02   2.69   0.91   1.25   3.36   2.61   0.93
3.07   2.63   2.25   1.69   3.00   2.67   2.67   4.12   4.21   2.19
3.01   2.80   3.30   3.93   2.36   2.54   1.49   2.31   3.97   1.93
2.52   1.28   3.34   3.08   2.21   1.53   3.32   2.27   2.83   1.99
3.29   2.91   0.75   3.04   2.55   3.70   3.27   3.55   1.18   0.78
1.95   3.81   3.04   4.01   1.82   3.45   0.77   3.37   1.52   0.89
3.14   3.36   2.81   4.07   2.87   2.30   2.12   2.23   3.43   1.66
1.99   2.45   2.40   2.26   1.99   2.74   3.89   1.40   2.40   3.19
2.27   3.44   2.25   2.75   1.12   2.34   3.69   2.22   2.15   3.42
3.14   2.19   1.47   1.97   3.06   1.11   2.19   3.58   2.62   2.78
    INTERNAL FACTOR 1.0
0.99   2.72   0.18   0.77   0.41   1.74   1.54   0.79   1.58   0.74
0.89   2.19   1.69   1.33   2.40   1.97   2.03   2.94   2.15   2.10
1.07   1.98   3.53   1.48   2.79   2.00   2.34   0.72   0.69   0.36
1.74   0.75   0.41   2.67   2.13   1.05   0.36   2.05   0.65   2.95
2.20   0.48   1.63   1.03   1.34   1.50   1.05   1.48   0.89   4.19
0.89   1.92   1.84   0.35   0.81   1.34   1.37   1.67   1.33   0.11
0.14   1.07   2.23   1.32   0.72   1.08   0.99   2.36   0.25   2.34
0.15   3.59   1.16   0.82   2.05   1.28   2.16   1.54   1.44   3.23
0.18   1.71   1.27   1.61   0.37   1.29   1.66   0.56   1.91   2.28
0.67   2.58   1.16   0.68   1.47   1.34   0.94   1.68   1.13   0.78
0.90   2.12   0.28   1.05   2.31   0.63   0.54   2.82   1.68   0.40
2.39   2.07   1.43   0.48   2.07   1.41   1.13   2.96   1.68   1.26
0.77   1.22   0.71   1.08   0.49   1.15   0.80   1.93   1.77   1.11
1.10   0.50   0.26   2.13   0.38   0.69   0.51   2.09   1.11   1.94
1.09   2.10   0.50   2.39   1.67   2.26   2.54   2.46   1.05   0.73
1.86   3.54   2.80   1.03   1.52   2.24   0.41   2.12   0.87   0.49
2.62   0.45   2.30   3.09   1.88   0.80   0.69   1.21   1.80   0.68
0.19   0.22   1.44   1.20   1.27   2.04   1.40   0.49   0.43   1.83
1.37   2.48   1.46   2.37   0.33   1.87   2.86   1.42   0.95   1.52
0.45   1.06   1.46   0.78   1.34   0.84   0.71   0.48   2.21   1.92
    INTERNAL FACTOR 1.0
0.71   0.00   0.00   0.00   0.00   0.77   0.00   0.00   0.59   0.43
0.38   0.09   0.00   0.00   0.00   0.61   0.94   0.52   1.06   0.00
0.00   0.00   0.03   0.00   0.00   0.00   0.08   0.00   0.00   0.00
0.68   0.31   0.00   0.00   0.00   0.00   0.00   0.68   0.00   0.81
0.00   0.00   0.70   0.33   0.00   0.48   0.00   0.00   0.00   1.79
0.00   0.21   1.20   0.00   0.77   1.07   0.00   1.00   0.85   0.00
0.00   0.16   1.21   0.90   0.23   0.00   0.58   1.56   0.00   1.72
0.00   2.39   0.12   0.59   0.61   0.29   1.54   0.34   0.16   2.32
0.00   1.27   0.10   0.47   0.23   0.00   1.26   0.00   1.76   1.42
0.00   0.00   0.79   0.00   0.55   0.00   0.11   1.27   0.00   0.00
0.00   0.00   0.00   0.00   1.08   0.00   0.00   0.76   0.37   0.00
1.91   0.00   0.53   0.14   1.68   0.00   0.00   2.53   0.00   0.14
0.00   0.00   0.00   0.05   0.00   0.07   0.00   0.00   0.00   0.00
0.00   0.00   0.00   0.97   0.00   0.00   0.00   1.41   0.36   0.00
0.66   0.08   0.00   0.00   0.87   1.39   1.48   0.00   0.40   0.00
1.49   2.38   0.08   0.29   0.00   0.85   0.34   0.41   0.11   0.00
0.14   0.00   0.87   1.96   1.08   0.05   0.00   0.00   0.64   0.02
0.00   0.00   0.00   0.86   0.21   0.00   0.00   0.00   0.00   0.91
0.71   0.00   0.00   1.67   0.16   0.00   0.00   0.73   0.68   0.84
0.00   0.84   1.01   0.00   0.00   0.28   0.00   0.28   1.77   0.00
  IDOMAIN LAYERED
    INTERNAL  FACTOR  1 IPRN -1
    1 1 0 0 0 0 0 0 0 0 0 0 0 0 0 0 0 0 1 1
    1 1 1 1 1 1 1 1 1 1 1 1 1 1 1 1 1 1 1 1
    1 1 1 1 1 1 1 1 1 1 1 1 1 1 1 1 1 1 1 1
    1 1 1 1 1 1 1 1 1 1 1 1 1 1 1 1 1 1 1 1
    1 1 1 1 1 1 1 1 1 1 1 1 1 1 1 1 1 1 1 1
    1 1 1 1 1 1 1 1 1 1 1 1 1 1 1 1 1 1 1 1
    1 1 1 1 1 1 1 1 1 1 1 1 1 1 1 1 1 1 1 1
    1 1 1 1 1 1 1 1 1 1 1 1 1 1 1 1 1 1 1 1
    1 1 1 1 1 1 1 1 1 1 1 1 1 1 1 1 1 1 1 1
    1 1 1 1 1 1 1 1 1 1 1 1 1 1 1 1 1 1 1 1
    CONSTANT 1
    CONSTANT 1
    CONSTANT 1
END GRIDDATA

BEGIN VERTICES
  1 0.0 10.0
  2 1.0 10.0
  3 2.0 10.0
  4 3.0 10.0
  5 4.0 10.0
  6 5.0 10.0
  7 6.0 10.0
  8 7.0 10.0
  9 8.0 10.0
  10 9.0 10.0
  11 10.0 10.0
  12 0.0 9.0
  13 1.0 9.0
  14 2.0 9.0
  15 3.0 9.0
  16 4.0 9.0
  17 5.0 9.0
  18 6.0 9.0
  19 7.0 9.0
  20 8.0 9.0
  21 9.0 9.0
  22 10.0 9.0
  23 0.0 8.0
  24 1.0 8.0
  25 2.0 8.0
  26 3.0 8.0
  27 4.0 8.0
  28 5.0 8.0
  29 6.0 8.0
  30 7.0 8.0
  31 8.0 8.0
  32 9.0 8.0
  33 10.0 8.0
  34 0.0 7.0
  35 1.0 7.0
  36 2.0 7.0
  37 3.0 7.0
  38 4.0 7.0
  39 5.0 7.0
  40 6.0 7.0
  41 7.0 7.0
  42 8.0 7.0
  43 9.0 7.0
  44 10.0 7.0
  45 0.0 6.0
  46 1.0 6.0
  47 2.0 6.0
  48 3.0 6.0
  49 4.0 6.0
  50 5.0 6.0
  51 6.0 6.0
  52 7.0 6.0
  53 8.0 6.0
  54 9.0 6.0
  55 10.0 6.0
  56 0.0 5.0
  57 1.0 5.0
  58 2.0 5.0
  59 3.0 5.0
  60 4.0 5.0
  61 5.0 5.0
  62 6.0 5.0
  63 7.0 5.0
  64 8.0 5.0
  65 9.0 5.0
  66 10.0 5.0
  67 0.0 4.0
  68 1.0 4.0
  69 2.0 4.0
  70 3.0 4.0
  71 4.0 4.0
  72 5.0 4.0
  73 6.0 4.0
  74 7.0 4.0
  75 8.0 4.0
  76 9.0 4.0
  77 10.0 4.0
  78 0.0 3.0
  79 1.0 3.0
  80 2.0 3.0
  81 3.0 3.0
  82 4.0 3.0
  83 5.0 3.0
  84 6.0 3.0
  85 7.0 3.0
  86 8.0 3.0
  87 9.0 3.0
  88 10.0 3.0
  89 0.0 2.0
  90 1.0 2.0
  91 2.0 2.0
  92 3.0 2.0
  93 4.0 2.0
  94 5.0 2.0
  95 6.0 2.0
  96 7.0 2.0
  97 8.0 2.0
  98 9.0 2.0
  99 10.0 2.0
  100 0.0 1.0
  101 1.0 1.0
  102 2.0 1.0
  103 3.0 1.0
  104 4.0 1.0
  105 5.0 1.0
  106 6.0 1.0
  107 7.0 1.0
  108 8.0 1.0
  109 9.0 1.0
  110 10.0 1.0
  111 0.0 0.0
  112 1.0 0.0
  113 2.0 0.0
  114 3.0 0.0
  115 4.0 0.0
  116 5.0 0.0
  117 6.0 0.0
  118 7.0 0.0
  119 8.0 0.0
  120 9.0 0.0
  121 10.0 0.0
END VERTICES

BEGIN CELL2D
1  0.33  9.67  3  1  2  12
2  0.67  9.33  3  2  13  12
3  1.33  9.67  3  2  3  13
4  1.67  9.33  3  3  14  13
5  2.33  9.67  3  3  4  14
6  2.67  9.33  3  4  15  14
7  3.33  9.67  3  4  5  15
8  3.67  9.33  3  5  16  15
9  4.33  9.67  3  5  6  16
10  4.67  9.33  3  6  17  16
11  5.33  9.67  3  6  7  17
12  5.67  9.33  3  7  18  17
13  6.33  9.67  3  7  8  18
14  6.67  9.33  3  8  19  18
15  7.33  9.67  3  8  9  19
16  7.67  9.33  3  9  20  19
17  8.33  9.67  3  9  10  20
18  8.67  9.33  3  10  21  20
19  9.33  9.67  3  10  11  21
20  9.67  9.33  3  11  22  21
21  0.33  8.67  3  12  13  23
22  0.67  8.33  3  13  24  23
23  1.33  8.67  3  13  14  24
24  1.67  8.33  3  14  25  24
25  2.33  8.67  3  14  15  25
26  2.67  8.33  3  15  26  25
27  3.33  8.67  3  15  16  26
28  3.67  8.33  3  16  27  26
29  4.33  8.67  3  16  17  27
30  4.67  8.33  3  17  28  27
31  5.33  8.67  3  17  18  28
32  5.67  8.33  3  18  29  28
33  6.33  8.67  3  18  19  29
34  6.67  8.33  3  19  30  29
35  7.33  8.67  3  19  20  30
36  7.67  8.33  3  20  31  30
37  8.33  8.67  3  20  21  31
38  8.67  8.33  3  21  32  31
39  9.33  8.67  3  21  22  32
40  9.67  8.33  3  22  33  32
41  0.33  7.67  3  23  24  34
42  0.67  7.33  3  24  35  34
43  1.33  7.67  3  24  25  35
44  1.67  7.33  3  25  36  35
45  2.33  7.67  3  25  26  36
46  2.67  7.33  3  26  37  36
47  3.33  7.67  3  26  27  37
48  3.67  7.33  3  27  38  37
49  4.33  7.67  3  27  28  38
50  4.67  7.33  3  28  39  38
51  5.33  7.67  3  28  29  39
52  5.67  7.33  3  29  40  39
53  6.33  7.67  3  29  30  40
54  6.67  7.33  3  30  41  40
55  7.33  7.67  3  30  31  41
56  7.67  7.33  3  31  42  41
57  8.33  7.67  3  31  32  42
58  8.67  7.33  3  32  43  42
59  9.33  7.67  3  32  33  43
60  9.67  7.33  3  33  44  43
61  0.33  6.67  3  34  35  45
62  0.67  6.33  3  35  46  45
63  1.33  6.67  3  35  36  46
64  1.67  6.33  3  36  47  46
65  2.33  6.67  3  36  37  47
66  2.67  6.33  3  37  48  47
67  3.33  6.67  3  37  38  48
68  3.67  6.33  3  38  49  48
69  4.33  6.67  3  38  39  49
70  4.67  6.33  3  39  50  49
71  5.33  6.67  3  39  40  50
72  5.67  6.33  3  40  51  50
73  6.33  6.67  3  40  41  51
74  6.67  6.33  3  41  52  51
75  7.33  6.67  3  41  42  52
76  7.67  6.33  3  42  53  52
77  8.33  6.67  3  42  43  53
78  8.67  6.33  3  43  54  53
79  9.33  6.67  3  43  44  54
80  9.67  6.33  3  44  55  54
81  0.33  5.67  3  45  46  56
82  0.67  5.33  3  46  57  56
83  1.33  5.67  3  46  47  57
84  1.67  5.33  3  47  58  57
85  2.33  5.67  3  47  48  58
86  2.67  5.33  3  48  59  58
87  3.33  5.67  3  48  49  59
88  3.67  5.33  3  49  60  59
89  4.33  5.67  3  49  50  60
90  4.67  5.33  3  50  61  60
91  5.33  5.67  3  50  51  61
92  5.67  5.33  3  51  62  61
93  6.33  5.67  3  51  52  62
94  6.67  5.33  3  52  63  62
95  7.33  5.67  3  52  53  63
96  7.67  5.33  3  53  64  63
97  8.33  5.67  3  53  54  64
98  8.67  5.33  3  54  65  64
99  9.33  5.67  3  54  55  65
100  9.67  5.33  3  55  66  65
101  0.33  4.67  3  56  57  67
102  0.67  4.33  3  57  68  67
103  1.33  4.67  3  57  58  68
104  1.67  4.33  3  58  69  68
105  2.33  4.67  3  58  59  69
106  2.67  4.33  3  59  70  69
107  3.33  4.67  3  59  60  70
108  3.67  4.33  3  60  71  70
109  4.33  4.67  3  60  61  71
110  4.67  4.33  3  61  72  71
111  5.33  4.67  3  61  62  72
112  5.67  4.33  3  62  73  72
113  6.33  4.67  3  62  63  73
114  6.67  4.33  3  63  74  73
115  7.33  4.67  3  63  64  74
116  7.67  4.33  3  64  75  74
117  8.33  4.67  3  64  65  75
118  8.67  4.33  3  65  76  75
119  9.33  4.67  3  65  66  76
120  9.67  4.33  3  66  77  76
121  0.33  3.67  3  67  68  78
122  0.67  3.33  3  68  79  78
123  1.33  3.67  3  68  69  79
124  1.67  3.33  3  69  80  79
125  2.33  3.67  3  69  70  80
126  2.67  3.33  3  70  81  80
127  3.33  3.67  3  70  71  81
128  3.67  3.33  3  71  82  81
129  4.33  3.67  3  71  72  82
130  4.67  3.33  3  72  83  82
131  5.33  3.67  3  72  73  83
132  5.67  3.33  3  73  84  83
133  6.33  3.67  3  73  74  84
134  6.67  3.33  3  74  85  84
135  7.33  3.67  3  74  75  85
136  7.67  3.33  3  75  86  85
137  8.33  3.67  3  75  76  86
138  8.67  3.33  3  76  87  86
139  9.33  3.67  3  76  77  87
140  9.67  3.33  3  77  88  87
141  0.33  2.67  3  78  79  89
142  0.67  2.33  3  79  90  89
143  1.33  2.67  3  79  80  90
144  1.67  2.33  3  80  91  90
145  2.33  2.67  3  80  81  91
146  2.67  2.33  3  81  92  91
147  3.33  2.67  3  81  82  92
148  3.67  2.33  3  82  93  92
149  4.33  2.67  3  82  83  93
150  4.67  2.33  3  83  94  93
151  5.33  2.67  3  83  84  94
152  5.67  2.33  3  84  95  94
153  6.33  2.67  3  84  85  95
154  6.67  2.33  3  85  96  95
155  7.33  2.67  3  85  86  96
156  7.67  2.33  3  86  97  96
157  8.33  2.67  3  86  87  97
158  8.67  2.33  3  87  98  97
159  9.33  2.67  3  87  88  98
160  9.67  2.33  3  88  99  98
161  0.33  1.67  3  89  90  100
162  0.67  1.33  3  90  101  100
163  1.33  1.67  3  90  91  101
164  1.67  1.33  3  91  102  101
165  2.33  1.67  3  91  92  102
166  2.67  1.33  3  92  103  102
167  3.33  1.67  3  92  93  103
168  3.67  1.33  3  93  104  103
169  4.33  1.67  3  93  94  104
170  4.67  1.33  3  94  105  104
171  5.33  1.67  3  94  95  105
172  5.67  1.33  3  95  106  105
173  6.33  1.67  3  95  96  106
174  6.67  1.33  3  96  107  106
175  7.33  1.67  3  96  97  107
176  7.67  1.33  3  97  108  107
177  8.33  1.67  3  97  98  108
178  8.67  1.33  3  98  109  108
179  9.33  1.67  3  98  99  109
180  9.67  1.33  3  99  110  109
181  0.33  0.67  3  100  101  111
182  0.67  0.33  3  101  112  111
183  1.33  0.67  3  101  102  112
184  1.67  0.33  3  102  113  112
185  2.33  0.67  3  102  103  113
186  2.67  0.33  3  103  114  113
187  3.33  0.67  3  103  104  114
188  3.67  0.33  3  104  115  114
189  4.33  0.67  3  104  105  115
190  4.67  0.33  3  105  116  115
191  5.33  0.67  3  105  106  116
192  5.67  0.33  3  106  117  116
193  6.33  0.67  3  106  107  117
194  6.67  0.33  3  107  118  117
195  7.33  0.67  3  107  108  118
196  7.67  0.33  3  108  119  118
197  8.33  0.67  3  108  109  119
198  8.67  0.33  3  109  120  119
199  9.33  0.67  3  109  110  120
200  9.67  0.33  3  110  121  120
END CELL2D

