BEGIN OPTIONS
  HEAD FILEOUT tri_model.hds
  BUDGET FILEOUT tri_model.cbc
END OPTIONS

BEGIN PERIOD 1
  PRINT BUDGET ALL
  SAVE BUDGET ALL
  PRINT HEAD ALL
  SAVE HEAD ALL
 END PERIOD

