BEGIN OPTIONS
END OPTIONS

BEGIN DIMENSIONS
  NCPL 200
  NLAY 4
  NVERT 121
END DIMENSIONS

BEGIN GRIDDATA
  TOP
    CONSTANT 2.0
  BOTM LAYERED
    CONSTANT 1.5
    CONSTANT 1.0
    CONSTANT 0.5
    CONSTANT 0.0
  IDOMAIN LAYERED
    INTERNAL  FACTOR  1 IPRN -1
    1 1 0 0 0 0 0 0 0 0 0 0 0 0 0 0 0 0 1 1
    1 1 1 1 1 1 1 1 1 1 1 1 1 1 1 1 1 1 1 1
    1 1 1 1 1 1 1 1 1 1 1 1 1 1 1 1 1 1 1 1
    1 1 1 1 1 1 1 1 1 1 1 1 1 1 1 1 1 1 1 1
    1 1 1 1 1 1 1 1 1 1 1 1 1 1 1 1 1 1 1 1
    1 1 1 1 1 1 1 1 1 1 1 1 1 1 1 1 1 1 1 1
    1 1 1 1 1 1 1 1 1 1 1 1 1 1 1 1 1 1 1 1
    1 1 1 1 1 1 1 1 1 1 1 1 1 1 1 1 1 1 1 1
    1 1 1 1 1 1 1 1 1 1 1 1 1 1 1 1 1 1 1 1
    1 1 1 1 1 1 1 1 1 1 1 1 1 1 1 1 1 1 1 1
    CONSTANT 1
    CONSTANT 1
    CONSTANT 1
END GRIDDATA

BEGIN VERTICES
  1 0.0 10.0
  2 1.0 10.0
  3 2.0 10.0
  4 3.0 10.0
  5 4.0 10.0
  6 5.0 10.0
  7 6.0 10.0
  8 7.0 10.0
  9 8.0 10.0
  10 9.0 10.0
  11 10.0 10.0
  12 0.0 9.0
  13 1.0 9.0
  14 2.0 9.0
  15 3.0 9.0
  16 4.0 9.0
  17 5.0 9.0
  18 6.0 9.0
  19 7.0 9.0
  20 8.0 9.0
  21 9.0 9.0
  22 10.0 9.0
  23 0.0 8.0
  24 1.0 8.0
  25 2.0 8.0
  26 3.0 8.0
  27 4.0 8.0
  28 5.0 8.0
  29 6.0 8.0
  30 7.0 8.0
  31 8.0 8.0
  32 9.0 8.0
  33 10.0 8.0
  34 0.0 7.0
  35 1.0 7.0
  36 2.0 7.0
  37 3.0 7.0
  38 4.0 7.0
  39 5.0 7.0
  40 6.0 7.0
  41 7.0 7.0
  42 8.0 7.0
  43 9.0 7.0
  44 10.0 7.0
  45 0.0 6.0
  46 1.0 6.0
  47 2.0 6.0
  48 3.0 6.0
  49 4.0 6.0
  50 5.0 6.0
  51 6.0 6.0
  52 7.0 6.0
  53 8.0 6.0
  54 9.0 6.0
  55 10.0 6.0
  56 0.0 5.0
  57 1.0 5.0
  58 2.0 5.0
  59 3.0 5.0
  60 4.0 5.0
  61 5.0 5.0
  62 6.0 5.0
  63 7.0 5.0
  64 8.0 5.0
  65 9.0 5.0
  66 10.0 5.0
  67 0.0 4.0
  68 1.0 4.0
  69 2.0 4.0
  70 3.0 4.0
  71 4.0 4.0
  72 5.0 4.0
  73 6.0 4.0
  74 7.0 4.0
  75 8.0 4.0
  76 9.0 4.0
  77 10.0 4.0
  78 0.0 3.0
  79 1.0 3.0
  80 2.0 3.0
  81 3.0 3.0
  82 4.0 3.0
  83 5.0 3.0
  84 6.0 3.0
  85 7.0 3.0
  86 8.0 3.0
  87 9.0 3.0
  88 10.0 3.0
  89 0.0 2.0
  90 1.0 2.0
  91 2.0 2.0
  92 3.0 2.0
  93 4.0 2.0
  94 5.0 2.0
  95 6.0 2.0
  96 7.0 2.0
  97 8.0 2.0
  98 9.0 2.0
  99 10.0 2.0
  100 0.0 1.0
  101 1.0 1.0
  102 2.0 1.0
  103 3.0 1.0
  104 4.0 1.0
  105 5.0 1.0
  106 6.0 1.0
  107 7.0 1.0
  108 8.0 1.0
  109 9.0 1.0
  110 10.0 1.0
  111 0.0 0.0
  112 1.0 0.0
  113 2.0 0.0
  114 3.0 0.0
  115 4.0 0.0
  116 5.0 0.0
  117 6.0 0.0
  118 7.0 0.0
  119 8.0 0.0
  120 9.0 0.0
  121 10.0 0.0
END VERTICES

BEGIN CELL2D
1  0.33  9.67  3  1  2  12
2  0.67  9.33  3  2  13  12
3  1.33  9.67  3  2  3  13
4  1.67  9.33  3  3  14  13
5  2.33  9.67  3  3  4  14
6  2.67  9.33  3  4  15  14
7  3.33  9.67  3  4  5  15
8  3.67  9.33  3  5  16  15
9  4.33  9.67  3  5  6  16
10  4.67  9.33  3  6  17  16
11  5.33  9.67  3  6  7  17
12  5.67  9.33  3  7  18  17
13  6.33  9.67  3  7  8  18
14  6.67  9.33  3  8  19  18
15  7.33  9.67  3  8  9  19
16  7.67  9.33  3  9  20  19
17  8.33  9.67  3  9  10  20
18  8.67  9.33  3  10  21  20
19  9.33  9.67  3  10  11  21
20  9.67  9.33  3  11  22  21
21  0.33  8.67  3  12  13  23
22  0.67  8.33  3  13  24  23
23  1.33  8.67  3  13  14  24
24  1.67  8.33  3  14  25  24
25  2.33  8.67  3  14  15  25
26  2.67  8.33  3  15  26  25
27  3.33  8.67  3  15  16  26
28  3.67  8.33  3  16  27  26
29  4.33  8.67  3  16  17  27
30  4.67  8.33  3  17  28  27
31  5.33  8.67  3  17  18  28
32  5.67  8.33  3  18  29  28
33  6.33  8.67  3  18  19  29
34  6.67  8.33  3  19  30  29
35  7.33  8.67  3  19  20  30
36  7.67  8.33  3  20  31  30
37  8.33  8.67  3  20  21  31
38  8.67  8.33  3  21  32  31
39  9.33  8.67  3  21  22  32
40  9.67  8.33  3  22  33  32
41  0.33  7.67  3  23  24  34
42  0.67  7.33  3  24  35  34
43  1.33  7.67  3  24  25  35
44  1.67  7.33  3  25  36  35
45  2.33  7.67  3  25  26  36
46  2.67  7.33  3  26  37  36
47  3.33  7.67  3  26  27  37
48  3.67  7.33  3  27  38  37
49  4.33  7.67  3  27  28  38
50  4.67  7.33  3  28  39  38
51  5.33  7.67  3  28  29  39
52  5.67  7.33  3  29  40  39
53  6.33  7.67  3  29  30  40
54  6.67  7.33  3  30  41  40
55  7.33  7.67  3  30  31  41
56  7.67  7.33  3  31  42  41
57  8.33  7.67  3  31  32  42
58  8.67  7.33  3  32  43  42
59  9.33  7.67  3  32  33  43
60  9.67  7.33  3  33  44  43
61  0.33  6.67  3  34  35  45
62  0.67  6.33  3  35  46  45
63  1.33  6.67  3  35  36  46
64  1.67  6.33  3  36  47  46
65  2.33  6.67  3  36  37  47
66  2.67  6.33  3  37  48  47
67  3.33  6.67  3  37  38  48
68  3.67  6.33  3  38  49  48
69  4.33  6.67  3  38  39  49
70  4.67  6.33  3  39  50  49
71  5.33  6.67  3  39  40  50
72  5.67  6.33  3  40  51  50
73  6.33  6.67  3  40  41  51
74  6.67  6.33  3  41  52  51
75  7.33  6.67  3  41  42  52
76  7.67  6.33  3  42  53  52
77  8.33  6.67  3  42  43  53
78  8.67  6.33  3  43  54  53
79  9.33  6.67  3  43  44  54
80  9.67  6.33  3  44  55  54
81  0.33  5.67  3  45  46  56
82  0.67  5.33  3  46  57  56
83  1.33  5.67  3  46  47  57
84  1.67  5.33  3  47  58  57
85  2.33  5.67  3  47  48  58
86  2.67  5.33  3  48  59  58
87  3.33  5.67  3  48  49  59
88  3.67  5.33  3  49  60  59
89  4.33  5.67  3  49  50  60
90  4.67  5.33  3  50  61  60
91  5.33  5.67  3  50  51  61
92  5.67  5.33  3  51  62  61
93  6.33  5.67  3  51  52  62
94  6.67  5.33  3  52  63  62
95  7.33  5.67  3  52  53  63
96  7.67  5.33  3  53  64  63
97  8.33  5.67  3  53  54  64
98  8.67  5.33  3  54  65  64
99  9.33  5.67  3  54  55  65
100  9.67  5.33  3  55  66  65
101  0.33  4.67  3  56  57  67
102  0.67  4.33  3  57  68  67
103  1.33  4.67  3  57  58  68
104  1.67  4.33  3  58  69  68
105  2.33  4.67  3  58  59  69
106  2.67  4.33  3  59  70  69
107  3.33  4.67  3  59  60  70
108  3.67  4.33  3  60  71  70
109  4.33  4.67  3  60  61  71
110  4.67  4.33  3  61  72  71
111  5.33  4.67  3  61  62  72
112  5.67  4.33  3  62  73  72
113  6.33  4.67  3  62  63  73
114  6.67  4.33  3  63  74  73
115  7.33  4.67  3  63  64  74
116  7.67  4.33  3  64  75  74
117  8.33  4.67  3  64  65  75
118  8.67  4.33  3  65  76  75
119  9.33  4.67  3  65  66  76
120  9.67  4.33  3  66  77  76
121  0.33  3.67  3  67  68  78
122  0.67  3.33  3  68  79  78
123  1.33  3.67  3  68  69  79
124  1.67  3.33  3  69  80  79
125  2.33  3.67  3  69  70  80
126  2.67  3.33  3  70  81  80
127  3.33  3.67  3  70  71  81
128  3.67  3.33  3  71  82  81
129  4.33  3.67  3  71  72  82
130  4.67  3.33  3  72  83  82
131  5.33  3.67  3  72  73  83
132  5.67  3.33  3  73  84  83
133  6.33  3.67  3  73  74  84
134  6.67  3.33  3  74  85  84
135  7.33  3.67  3  74  75  85
136  7.67  3.33  3  75  86  85
137  8.33  3.67  3  75  76  86
138  8.67  3.33  3  76  87  86
139  9.33  3.67  3  76  77  87
140  9.67  3.33  3  77  88  87
141  0.33  2.67  3  78  79  89
142  0.67  2.33  3  79  90  89
143  1.33  2.67  3  79  80  90
144  1.67  2.33  3  80  91  90
145  2.33  2.67  3  80  81  91
146  2.67  2.33  3  81  92  91
147  3.33  2.67  3  81  82  92
148  3.67  2.33  3  82  93  92
149  4.33  2.67  3  82  83  93
150  4.67  2.33  3  83  94  93
151  5.33  2.67  3  83  84  94
152  5.67  2.33  3  84  95  94
153  6.33  2.67  3  84  85  95
154  6.67  2.33  3  85  96  95
155  7.33  2.67  3  85  86  96
156  7.67  2.33  3  86  97  96
157  8.33  2.67  3  86  87  97
158  8.67  2.33  3  87  98  97
159  9.33  2.67  3  87  88  98
160  9.67  2.33  3  88  99  98
161  0.33  1.67  3  89  90  100
162  0.67  1.33  3  90  101  100
163  1.33  1.67  3  90  91  101
164  1.67  1.33  3  91  102  101
165  2.33  1.67  3  91  92  102
166  2.67  1.33  3  92  103  102
167  3.33  1.67  3  92  93  103
168  3.67  1.33  3  93  104  103
169  4.33  1.67  3  93  94  104
170  4.67  1.33  3  94  105  104
171  5.33  1.67  3  94  95  105
172  5.67  1.33  3  95  106  105
173  6.33  1.67  3  95  96  106
174  6.67  1.33  3  96  107  106
175  7.33  1.67  3  96  97  107
176  7.67  1.33  3  97  108  107
177  8.33  1.67  3  97  98  108
178  8.67  1.33  3  98  109  108
179  9.33  1.67  3  98  99  109
180  9.67  1.33  3  99  110  109
181  0.33  0.67  3  100  101  111
182  0.67  0.33  3  101  112  111
183  1.33  0.67  3  101  102  112
184  1.67  0.33  3  102  113  112
185  2.33  0.67  3  102  103  113
186  2.67  0.33  3  103  114  113
187  3.33  0.67  3  103  104  114
188  3.67  0.33  3  104  115  114
189  4.33  0.67  3  104  105  115
190  4.67  0.33  3  105  116  115
191  5.33  0.67  3  105  106  116
192  5.67  0.33  3  106  117  116
193  6.33  0.67  3  106  107  117
194  6.67  0.33  3  107  118  117
195  7.33  0.67  3  107  108  118
196  7.67  0.33  3  108  119  118
197  8.33  0.67  3  108  109  119
198  8.67  0.33  3  109  120  119
199  9.33  0.67  3  109  110  120
200  9.67  0.33  3  110  121  120
END CELL2D

