MT3DMS benchmark test problem #7
3D transport in a uniform flow field
         8        15        21         1         4
 11 12 00  0  0  0  0 00 19  0  0 22 00 00 00 00 00 00 00 00 00 32
         0         0     IAPART,ISTRT
         1         1(21I3)                       3    IBOUND-1
 -1  1  1  1  1  1  1  1  1  1  1  1  1  1  1  1  1  1  1  1 -1
 -1  1  1  1  1  1  1  1  1  1  1  1  1  1  1  1  1  1  1  1 -1
 -1  1  1  1  1  1  1  1  1  1  1  1  1  1  1  1  1  1  1  1 -1
 -1  1  1  1  1  1  1  1  1  1  1  1  1  1  1  1  1  1  1  1 -1
 -1  1  1  1  1  1  1  1  1  1  1  1  1  1  1  1  1  1  1  1 -1
 -1  1  1  1  1  1  1  1  1  1  1  1  1  1  1  1  1  1  1  1 -1
 -1  1  1  1  1  1  1  1  1  1  1  1  1  1  1  1  1  1  1  1 -1
 -1  1  1  1  1  1  1  1  1  1  1  1  1  1  1  1  1  1  1  1 -1
 -1  1  1  1  1  1  1  1  1  1  1  1  1  1  1  1  1  1  1  1 -1
 -1  1  1  1  1  1  1  1  1  1  1  1  1  1  1  1  1  1  1  1 -1
 -1  1  1  1  1  1  1  1  1  1  1  1  1  1  1  1  1  1  1  1 -1
 -1  1  1  1  1  1  1  1  1  1  1  1  1  1  1  1  1  1  1  1 -1
 -1  1  1  1  1  1  1  1  1  1  1  1  1  1  1  1  1  1  1  1 -1
 -1  1  1  1  1  1  1  1  1  1  1  1  1  1  1  1  1  1  1  1 -1
 -1  1  1  1  1  1  1  1  1  1  1  1  1  1  1  1  1  1  1  1 -1
         1         1(21I3)                       3    IBOUND-2
 -1  1  1  1  1  1  1  1  1  1  1  1  1  1  1  1  1  1  1  1 -1
 -1  1  1  1  1  1  1  1  1  1  1  1  1  1  1  1  1  1  1  1 -1
 -1  1  1  1  1  1  1  1  1  1  1  1  1  1  1  1  1  1  1  1 -1
 -1  1  1  1  1  1  1  1  1  1  1  1  1  1  1  1  1  1  1  1 -1
 -1  1  1  1  1  1  1  1  1  1  1  1  1  1  1  1  1  1  1  1 -1
 -1  1  1  1  1  1  1  1  1  1  1  1  1  1  1  1  1  1  1  1 -1
 -1  1  1  1  1  1  1  1  1  1  1  1  1  1  1  1  1  1  1  1 -1
 -1  1  1  1  1  1  1  1  1  1  1  1  1  1  1  1  1  1  1  1 -1
 -1  1  1  1  1  1  1  1  1  1  1  1  1  1  1  1  1  1  1  1 -1
 -1  1  1  1  1  1  1  1  1  1  1  1  1  1  1  1  1  1  1  1 -1
 -1  1  1  1  1  1  1  1  1  1  1  1  1  1  1  1  1  1  1  1 -1
 -1  1  1  1  1  1  1  1  1  1  1  1  1  1  1  1  1  1  1  1 -1
 -1  1  1  1  1  1  1  1  1  1  1  1  1  1  1  1  1  1  1  1 -1
 -1  1  1  1  1  1  1  1  1  1  1  1  1  1  1  1  1  1  1  1 -1
 -1  1  1  1  1  1  1  1  1  1  1  1  1  1  1  1  1  1  1  1 -1
         1         1(21I3)                       3    IBOUND-3
 -1  1  1  1  1  1  1  1  1  1  1  1  1  1  1  1  1  1  1  1 -1
 -1  1  1  1  1  1  1  1  1  1  1  1  1  1  1  1  1  1  1  1 -1
 -1  1  1  1  1  1  1  1  1  1  1  1  1  1  1  1  1  1  1  1 -1
 -1  1  1  1  1  1  1  1  1  1  1  1  1  1  1  1  1  1  1  1 -1
 -1  1  1  1  1  1  1  1  1  1  1  1  1  1  1  1  1  1  1  1 -1
 -1  1  1  1  1  1  1  1  1  1  1  1  1  1  1  1  1  1  1  1 -1
 -1  1  1  1  1  1  1  1  1  1  1  1  1  1  1  1  1  1  1  1 -1
 -1  1  1  1  1  1  1  1  1  1  1  1  1  1  1  1  1  1  1  1 -1
 -1  1  1  1  1  1  1  1  1  1  1  1  1  1  1  1  1  1  1  1 -1
 -1  1  1  1  1  1  1  1  1  1  1  1  1  1  1  1  1  1  1  1 -1
 -1  1  1  1  1  1  1  1  1  1  1  1  1  1  1  1  1  1  1  1 -1
 -1  1  1  1  1  1  1  1  1  1  1  1  1  1  1  1  1  1  1  1 -1
 -1  1  1  1  1  1  1  1  1  1  1  1  1  1  1  1  1  1  1  1 -1
 -1  1  1  1  1  1  1  1  1  1  1  1  1  1  1  1  1  1  1  1 -1
 -1  1  1  1  1  1  1  1  1  1  1  1  1  1  1  1  1  1  1  1 -1
         1         1(21I3)                       3    IBOUND-4
 -1  1  1  1  1  1  1  1  1  1  1  1  1  1  1  1  1  1  1  1 -1
 -1  1  1  1  1  1  1  1  1  1  1  1  1  1  1  1  1  1  1  1 -1
 -1  1  1  1  1  1  1  1  1  1  1  1  1  1  1  1  1  1  1  1 -1
 -1  1  1  1  1  1  1  1  1  1  1  1  1  1  1  1  1  1  1  1 -1
 -1  1  1  1  1  1  1  1  1  1  1  1  1  1  1  1  1  1  1  1 -1
 -1  1  1  1  1  1  1  1  1  1  1  1  1  1  1  1  1  1  1  1 -1
 -1  1  1  1  1  1  1  1  1  1  1  1  1  1  1  1  1  1  1  1 -1
 -1  1  1  1  1  1  1  1  1  1  1  1  1  1  1  1  1  1  1  1 -1
 -1  1  1  1  1  1  1  1  1  1  1  1  1  1  1  1  1  1  1  1 -1
 -1  1  1  1  1  1  1  1  1  1  1  1  1  1  1  1  1  1  1  1 -1
 -1  1  1  1  1  1  1  1  1  1  1  1  1  1  1  1  1  1  1  1 -1
 -1  1  1  1  1  1  1  1  1  1  1  1  1  1  1  1  1  1  1  1 -1
 -1  1  1  1  1  1  1  1  1  1  1  1  1  1  1  1  1  1  1  1 -1
 -1  1  1  1  1  1  1  1  1  1  1  1  1  1  1  1  1  1  1  1 -1
 -1  1  1  1  1  1  1  1  1  1  1  1  1  1  1  1  1  1  1  1 -1
         1         1(21I3)                       3    IBOUND-5
 -1  1  1  1  1  1  1  1  1  1  1  1  1  1  1  1  1  1  1  1 -1
 -1  1  1  1  1  1  1  1  1  1  1  1  1  1  1  1  1  1  1  1 -1
 -1  1  1  1  1  1  1  1  1  1  1  1  1  1  1  1  1  1  1  1 -1
 -1  1  1  1  1  1  1  1  1  1  1  1  1  1  1  1  1  1  1  1 -1
 -1  1  1  1  1  1  1  1  1  1  1  1  1  1  1  1  1  1  1  1 -1
 -1  1  1  1  1  1  1  1  1  1  1  1  1  1  1  1  1  1  1  1 -1
 -1  1  1  1  1  1  1  1  1  1  1  1  1  1  1  1  1  1  1  1 -1
 -1  1  1  1  1  1  1  1  1  1  1  1  1  1  1  1  1  1  1  1 -1
 -1  1  1  1  1  1  1  1  1  1  1  1  1  1  1  1  1  1  1  1 -1
 -1  1  1  1  1  1  1  1  1  1  1  1  1  1  1  1  1  1  1  1 -1
 -1  1  1  1  1  1  1  1  1  1  1  1  1  1  1  1  1  1  1  1 -1
 -1  1  1  1  1  1  1  1  1  1  1  1  1  1  1  1  1  1  1  1 -1
 -1  1  1  1  1  1  1  1  1  1  1  1  1  1  1  1  1  1  1  1 -1
 -1  1  1  1  1  1  1  1  1  1  1  1  1  1  1  1  1  1  1  1 -1
 -1  1  1  1  1  1  1  1  1  1  1  1  1  1  1  1  1  1  1  1 -1
         1         1(21I3)                       3    IBOUND-6
 -1  1  1  1  1  1  1  1  1  1  1  1  1  1  1  1  1  1  1  1 -1
 -1  1  1  1  1  1  1  1  1  1  1  1  1  1  1  1  1  1  1  1 -1
 -1  1  1  1  1  1  1  1  1  1  1  1  1  1  1  1  1  1  1  1 -1
 -1  1  1  1  1  1  1  1  1  1  1  1  1  1  1  1  1  1  1  1 -1
 -1  1  1  1  1  1  1  1  1  1  1  1  1  1  1  1  1  1  1  1 -1
 -1  1  1  1  1  1  1  1  1  1  1  1  1  1  1  1  1  1  1  1 -1
 -1  1  1  1  1  1  1  1  1  1  1  1  1  1  1  1  1  1  1  1 -1
 -1  1  1  1  1  1  1  1  1  1  1  1  1  1  1  1  1  1  1  1 -1
 -1  1  1  1  1  1  1  1  1  1  1  1  1  1  1  1  1  1  1  1 -1
 -1  1  1  1  1  1  1  1  1  1  1  1  1  1  1  1  1  1  1  1 -1
 -1  1  1  1  1  1  1  1  1  1  1  1  1  1  1  1  1  1  1  1 -1
 -1  1  1  1  1  1  1  1  1  1  1  1  1  1  1  1  1  1  1  1 -1
 -1  1  1  1  1  1  1  1  1  1  1  1  1  1  1  1  1  1  1  1 -1
 -1  1  1  1  1  1  1  1  1  1  1  1  1  1  1  1  1  1  1  1 -1
 -1  1  1  1  1  1  1  1  1  1  1  1  1  1  1  1  1  1  1  1 -1
         1         1(21I3)                       3    IBOUND-7
 -1  1  1  1  1  1  1  1  1  1  1  1  1  1  1  1  1  1  1  1 -1
 -1  1  1  1  1  1  1  1  1  1  1  1  1  1  1  1  1  1  1  1 -1
 -1  1  1  1  1  1  1  1  1  1  1  1  1  1  1  1  1  1  1  1 -1
 -1  1  1  1  1  1  1  1  1  1  1  1  1  1  1  1  1  1  1  1 -1
 -1  1  1  1  1  1  1  1  1  1  1  1  1  1  1  1  1  1  1  1 -1
 -1  1  1  1  1  1  1  1  1  1  1  1  1  1  1  1  1  1  1  1 -1
 -1  1  1  1  1  1  1  1  1  1  1  1  1  1  1  1  1  1  1  1 -1
 -1  1  1  1  1  1  1  1  1  1  1  1  1  1  1  1  1  1  1  1 -1
 -1  1  1  1  1  1  1  1  1  1  1  1  1  1  1  1  1  1  1  1 -1
 -1  1  1  1  1  1  1  1  1  1  1  1  1  1  1  1  1  1  1  1 -1
 -1  1  1  1  1  1  1  1  1  1  1  1  1  1  1  1  1  1  1  1 -1
 -1  1  1  1  1  1  1  1  1  1  1  1  1  1  1  1  1  1  1  1 -1
 -1  1  1  1  1  1  1  1  1  1  1  1  1  1  1  1  1  1  1  1 -1
 -1  1  1  1  1  1  1  1  1  1  1  1  1  1  1  1  1  1  1  1 -1
 -1  1  1  1  1  1  1  1  1  1  1  1  1  1  1  1  1  1  1  1 -1
         1         1(21I3)                       3    IBOUND-8
 -1  1  1  1  1  1  1  1  1  1  1  1  1  1  1  1  1  1  1  1 -1
 -1  1  1  1  1  1  1  1  1  1  1  1  1  1  1  1  1  1  1  1 -1
 -1  1  1  1  1  1  1  1  1  1  1  1  1  1  1  1  1  1  1  1 -1
 -1  1  1  1  1  1  1  1  1  1  1  1  1  1  1  1  1  1  1  1 -1
 -1  1  1  1  1  1  1  1  1  1  1  1  1  1  1  1  1  1  1  1 -1
 -1  1  1  1  1  1  1  1  1  1  1  1  1  1  1  1  1  1  1  1 -1
 -1  1  1  1  1  1  1  1  1  1  1  1  1  1  1  1  1  1  1  1 -1
 -1  1  1  1  1  1  1  1  1  1  1  1  1  1  1  1  1  1  1  1 -1
 -1  1  1  1  1  1  1  1  1  1  1  1  1  1  1  1  1  1  1  1 -1
 -1  1  1  1  1  1  1  1  1  1  1  1  1  1  1  1  1  1  1  1 -1
 -1  1  1  1  1  1  1  1  1  1  1  1  1  1  1  1  1  1  1  1 -1
 -1  1  1  1  1  1  1  1  1  1  1  1  1  1  1  1  1  1  1  1 -1
 -1  1  1  1  1  1  1  1  1  1  1  1  1  1  1  1  1  1  1  1 -1
 -1  1  1  1  1  1  1  1  1  1  1  1  1  1  1  1  1  1  1  1 -1
 -1  1  1  1  1  1  1  1  1  1  1  1  1  1  1  1  1  1  1  1 -1
    999.99
         1        0.(21F3.0)                     4    HEAD-1
 80 79 78 77 76 75 74 73 72 71 70 69 68 67 66 65 64 63 62 61 60
 80 79 78 77 76 75 74 73 72 71 70 69 68 67 66 65 64 63 62 61 60
 80 79 78 77 76 75 74 73 72 71 70 69 68 67 66 65 64 63 62 61 60
 80 79 78 77 76 75 74 73 72 71 70 69 68 67 66 65 64 63 62 61 60
 80 79 78 77 76 75 74 73 72 71 70 69 68 67 66 65 64 63 62 61 60
 80 79 78 77 76 75 74 73 72 71 70 69 68 67 66 65 64 63 62 61 60
 80 79 78 77 76 75 74 73 72 71 70 69 68 67 66 65 64 63 62 61 60
 80 79 78 77 76 75 74 73 72 71 70 69 68 67 66 65 64 63 62 61 60
 80 79 78 77 76 75 74 73 72 71 70 69 68 67 66 65 64 63 62 61 60
 80 79 78 77 76 75 74 73 72 71 70 69 68 67 66 65 64 63 62 61 60
 80 79 78 77 76 75 74 73 72 71 70 69 68 67 66 65 64 63 62 61 60
 80 79 78 77 76 75 74 73 72 71 70 69 68 67 66 65 64 63 62 61 60
 80 79 78 77 76 75 74 73 72 71 70 69 68 67 66 65 64 63 62 61 60
 80 79 78 77 76 75 74 73 72 71 70 69 68 67 66 65 64 63 62 61 60
 80 79 78 77 76 75 74 73 72 71 70 69 68 67 66 65 64 63 62 61 60
         1        0.(21F3.0)                     4    HEAD-2
 80 79 78 77 76 75 74 73 72 71 70 69 68 67 66 65 64 63 62 61 60
 80 79 78 77 76 75 74 73 72 71 70 69 68 67 66 65 64 63 62 61 60
 80 79 78 77 76 75 74 73 72 71 70 69 68 67 66 65 64 63 62 61 60
 80 79 78 77 76 75 74 73 72 71 70 69 68 67 66 65 64 63 62 61 60
 80 79 78 77 76 75 74 73 72 71 70 69 68 67 66 65 64 63 62 61 60
 80 79 78 77 76 75 74 73 72 71 70 69 68 67 66 65 64 63 62 61 60
 80 79 78 77 76 75 74 73 72 71 70 69 68 67 66 65 64 63 62 61 60
 80 79 78 77 76 75 74 73 72 71 70 69 68 67 66 65 64 63 62 61 60
 80 79 78 77 76 75 74 73 72 71 70 69 68 67 66 65 64 63 62 61 60
 80 79 78 77 76 75 74 73 72 71 70 69 68 67 66 65 64 63 62 61 60
 80 79 78 77 76 75 74 73 72 71 70 69 68 67 66 65 64 63 62 61 60
 80 79 78 77 76 75 74 73 72 71 70 69 68 67 66 65 64 63 62 61 60
 80 79 78 77 76 75 74 73 72 71 70 69 68 67 66 65 64 63 62 61 60
 80 79 78 77 76 75 74 73 72 71 70 69 68 67 66 65 64 63 62 61 60
 80 79 78 77 76 75 74 73 72 71 70 69 68 67 66 65 64 63 62 61 60
         1        0.(21F3.0)                     4    HEAD-3
 80 79 78 77 76 75 74 73 72 71 70 69 68 67 66 65 64 63 62 61 60
 80 79 78 77 76 75 74 73 72 71 70 69 68 67 66 65 64 63 62 61 60
 80 79 78 77 76 75 74 73 72 71 70 69 68 67 66 65 64 63 62 61 60
 80 79 78 77 76 75 74 73 72 71 70 69 68 67 66 65 64 63 62 61 60
 80 79 78 77 76 75 74 73 72 71 70 69 68 67 66 65 64 63 62 61 60
 80 79 78 77 76 75 74 73 72 71 70 69 68 67 66 65 64 63 62 61 60
 80 79 78 77 76 75 74 73 72 71 70 69 68 67 66 65 64 63 62 61 60
 80 79 78 77 76 75 74 73 72 71 70 69 68 67 66 65 64 63 62 61 60
 80 79 78 77 76 75 74 73 72 71 70 69 68 67 66 65 64 63 62 61 60
 80 79 78 77 76 75 74 73 72 71 70 69 68 67 66 65 64 63 62 61 60
 80 79 78 77 76 75 74 73 72 71 70 69 68 67 66 65 64 63 62 61 60
 80 79 78 77 76 75 74 73 72 71 70 69 68 67 66 65 64 63 62 61 60
 80 79 78 77 76 75 74 73 72 71 70 69 68 67 66 65 64 63 62 61 60
 80 79 78 77 76 75 74 73 72 71 70 69 68 67 66 65 64 63 62 61 60
 80 79 78 77 76 75 74 73 72 71 70 69 68 67 66 65 64 63 62 61 60
         1        0.(21F3.0)                     4    HEAD-4
 80 79 78 77 76 75 74 73 72 71 70 69 68 67 66 65 64 63 62 61 60
 80 79 78 77 76 75 74 73 72 71 70 69 68 67 66 65 64 63 62 61 60
 80 79 78 77 76 75 74 73 72 71 70 69 68 67 66 65 64 63 62 61 60
 80 79 78 77 76 75 74 73 72 71 70 69 68 67 66 65 64 63 62 61 60
 80 79 78 77 76 75 74 73 72 71 70 69 68 67 66 65 64 63 62 61 60
 80 79 78 77 76 75 74 73 72 71 70 69 68 67 66 65 64 63 62 61 60
 80 79 78 77 76 75 74 73 72 71 70 69 68 67 66 65 64 63 62 61 60
 80 79 78 77 76 75 74 73 72 71 70 69 68 67 66 65 64 63 62 61 60
 80 79 78 77 76 75 74 73 72 71 70 69 68 67 66 65 64 63 62 61 60
 80 79 78 77 76 75 74 73 72 71 70 69 68 67 66 65 64 63 62 61 60
 80 79 78 77 76 75 74 73 72 71 70 69 68 67 66 65 64 63 62 61 60
 80 79 78 77 76 75 74 73 72 71 70 69 68 67 66 65 64 63 62 61 60
 80 79 78 77 76 75 74 73 72 71 70 69 68 67 66 65 64 63 62 61 60
 80 79 78 77 76 75 74 73 72 71 70 69 68 67 66 65 64 63 62 61 60
 80 79 78 77 76 75 74 73 72 71 70 69 68 67 66 65 64 63 62 61 60
         1        0.(21F3.0)                     4    HEAD-5
 80 79 78 77 76 75 74 73 72 71 70 69 68 67 66 65 64 63 62 61 60
 80 79 78 77 76 75 74 73 72 71 70 69 68 67 66 65 64 63 62 61 60
 80 79 78 77 76 75 74 73 72 71 70 69 68 67 66 65 64 63 62 61 60
 80 79 78 77 76 75 74 73 72 71 70 69 68 67 66 65 64 63 62 61 60
 80 79 78 77 76 75 74 73 72 71 70 69 68 67 66 65 64 63 62 61 60
 80 79 78 77 76 75 74 73 72 71 70 69 68 67 66 65 64 63 62 61 60
 80 79 78 77 76 75 74 73 72 71 70 69 68 67 66 65 64 63 62 61 60
 80 79 78 77 76 75 74 73 72 71 70 69 68 67 66 65 64 63 62 61 60
 80 79 78 77 76 75 74 73 72 71 70 69 68 67 66 65 64 63 62 61 60
 80 79 78 77 76 75 74 73 72 71 70 69 68 67 66 65 64 63 62 61 60
 80 79 78 77 76 75 74 73 72 71 70 69 68 67 66 65 64 63 62 61 60
 80 79 78 77 76 75 74 73 72 71 70 69 68 67 66 65 64 63 62 61 60
 80 79 78 77 76 75 74 73 72 71 70 69 68 67 66 65 64 63 62 61 60
 80 79 78 77 76 75 74 73 72 71 70 69 68 67 66 65 64 63 62 61 60
 80 79 78 77 76 75 74 73 72 71 70 69 68 67 66 65 64 63 62 61 60
         1        0.(21F3.0)                     4    HEAD-6
 80 79 78 77 76 75 74 73 72 71 70 69 68 67 66 65 64 63 62 61 60
 80 79 78 77 76 75 74 73 72 71 70 69 68 67 66 65 64 63 62 61 60
 80 79 78 77 76 75 74 73 72 71 70 69 68 67 66 65 64 63 62 61 60
 80 79 78 77 76 75 74 73 72 71 70 69 68 67 66 65 64 63 62 61 60
 80 79 78 77 76 75 74 73 72 71 70 69 68 67 66 65 64 63 62 61 60
 80 79 78 77 76 75 74 73 72 71 70 69 68 67 66 65 64 63 62 61 60
 80 79 78 77 76 75 74 73 72 71 70 69 68 67 66 65 64 63 62 61 60
 80 79 78 77 76 75 74 73 72 71 70 69 68 67 66 65 64 63 62 61 60
 80 79 78 77 76 75 74 73 72 71 70 69 68 67 66 65 64 63 62 61 60
 80 79 78 77 76 75 74 73 72 71 70 69 68 67 66 65 64 63 62 61 60
 80 79 78 77 76 75 74 73 72 71 70 69 68 67 66 65 64 63 62 61 60
 80 79 78 77 76 75 74 73 72 71 70 69 68 67 66 65 64 63 62 61 60
 80 79 78 77 76 75 74 73 72 71 70 69 68 67 66 65 64 63 62 61 60
 80 79 78 77 76 75 74 73 72 71 70 69 68 67 66 65 64 63 62 61 60
 80 79 78 77 76 75 74 73 72 71 70 69 68 67 66 65 64 63 62 61 60
         1        0.(21F3.0)                     4    HEAD-7
 80 79 78 77 76 75 74 73 72 71 70 69 68 67 66 65 64 63 62 61 60
 80 79 78 77 76 75 74 73 72 71 70 69 68 67 66 65 64 63 62 61 60
 80 79 78 77 76 75 74 73 72 71 70 69 68 67 66 65 64 63 62 61 60
 80 79 78 77 76 75 74 73 72 71 70 69 68 67 66 65 64 63 62 61 60
 80 79 78 77 76 75 74 73 72 71 70 69 68 67 66 65 64 63 62 61 60
 80 79 78 77 76 75 74 73 72 71 70 69 68 67 66 65 64 63 62 61 60
 80 79 78 77 76 75 74 73 72 71 70 69 68 67 66 65 64 63 62 61 60
 80 79 78 77 76 75 74 73 72 71 70 69 68 67 66 65 64 63 62 61 60
 80 79 78 77 76 75 74 73 72 71 70 69 68 67 66 65 64 63 62 61 60
 80 79 78 77 76 75 74 73 72 71 70 69 68 67 66 65 64 63 62 61 60
 80 79 78 77 76 75 74 73 72 71 70 69 68 67 66 65 64 63 62 61 60
 80 79 78 77 76 75 74 73 72 71 70 69 68 67 66 65 64 63 62 61 60
 80 79 78 77 76 75 74 73 72 71 70 69 68 67 66 65 64 63 62 61 60
 80 79 78 77 76 75 74 73 72 71 70 69 68 67 66 65 64 63 62 61 60
 80 79 78 77 76 75 74 73 72 71 70 69 68 67 66 65 64 63 62 61 60
         1        0.(21F3.0)                     4    HEAD-8
 80 79 78 77 76 75 74 73 72 71 70 69 68 67 66 65 64 63 62 61 60
 80 79 78 77 76 75 74 73 72 71 70 69 68 67 66 65 64 63 62 61 60
 80 79 78 77 76 75 74 73 72 71 70 69 68 67 66 65 64 63 62 61 60
 80 79 78 77 76 75 74 73 72 71 70 69 68 67 66 65 64 63 62 61 60
 80 79 78 77 76 75 74 73 72 71 70 69 68 67 66 65 64 63 62 61 60
 80 79 78 77 76 75 74 73 72 71 70 69 68 67 66 65 64 63 62 61 60
 80 79 78 77 76 75 74 73 72 71 70 69 68 67 66 65 64 63 62 61 60
 80 79 78 77 76 75 74 73 72 71 70 69 68 67 66 65 64 63 62 61 60
 80 79 78 77 76 75 74 73 72 71 70 69 68 67 66 65 64 63 62 61 60
 80 79 78 77 76 75 74 73 72 71 70 69 68 67 66 65 64 63 62 61 60
 80 79 78 77 76 75 74 73 72 71 70 69 68 67 66 65 64 63 62 61 60
 80 79 78 77 76 75 74 73 72 71 70 69 68 67 66 65 64 63 62 61 60
 80 79 78 77 76 75 74 73 72 71 70 69 68 67 66 65 64 63 62 61 60
 80 79 78 77 76 75 74 73 72 71 70 69 68 67 66 65 64 63 62 61 60
 80 79 78 77 76 75 74 73 72 71 70 69 68 67 66 65 64 63 62 61 60
        1.         1        1.     PERLEN,NSTP,TSMULT
