 LISTING FILE: p7.M3D
                         UNIT  16

 OPENING p7.BTN
 FILE TYPE:BTN   UNIT   1

 OPENING p7.ADV
 FILE TYPE:ADV   UNIT   2

 OPENING p7.DSP
 FILE TYPE:DSP   UNIT   3

 OPENING p7.SSM
 FILE TYPE:SSM   UNIT   4

 OPENING p7.GCG
 FILE TYPE:GCG   UNIT   9

 OPENING p7.FTL
 FILE TYPE:FTL   UNIT  10

                              +++++++++++++++++++++++++++++++++++++++++++++++++++++++++++++++++++++++
                              +                                                                     +
                              +                               MT3DMS                                +
                              +             A Modular 3D Multi-Species Transport Model              +
                              +    For Simulation of Advection, Dispersion and Chemical Reactions   +
                              +                of Contaminants in Groundwater Systems               +
                              +                                                                     +
                              +++++++++++++++++++++++++++++++++++++++++++++++++++++++++++++++++++++++

  ----- 
 | M T | MT3DMS Benchmark Test Problem #7                                                
 | 3 D | 3D TRANSPORT IN A UNIFORM FLOW FIELD WITH CONTINUOUS POINT SOURCE               
  ----- 
 THE TRANSPORT MODEL CONSISTS OF     8 LAYER(S)   15 ROW(S)   21 COLUMN(S)
 NUMBER OF STRESS PERIOD(S) FOR TRANSPORT SIMULATION =    1
 NUMBER OF ALL COMPONENTS INCLUDED IN SIMULATION =    1
 NUMBER OF MOBILE COMPONENTS INCLUDED IN SIMULATION =    1
 UNIT FOR TIME IS  DAY;  UNIT FOR LENGTH IS   FT;  UNIT FOR MASS IS   LB
 OPTIONAL PACKAGES INCLUDED IN CURRENT SIMULATION:
  o ADV   ON UNIT  2
  o DSP   ON UNIT  3
  o SSM   ON UNIT  4
  o GCG   ON UNIT  9

 BTN5 -- BASIC TRANSPORT PACKAGE, VERSION 5, FEBRUARY 2010, INPUT READ FROM UNIT  1
      38187 ELEMENTS OF THE  X ARRAY USED BY THE BTN PACKAGE
       2528 ELEMENTS OF THE IX ARRAY USED BY THE BTN PACKAGE

 FMI5 -- FLOW MODEL INTERFACE PACKAGE, VERSION 5, FEBRUARY 2010, INPUT READ FROM UNIT 10
 FLOW MODEL IS STEADY-STATE
 FLOW MODEL CONTAINS CONSTANT-HEAD CELLS

 ADV5 -- ADVECTION PACKAGE, VERSION 5, FEBRUARY 2010, INPUT READ FROM UNIT  2
 ADVECTION IS SOLVED WITH THE ULTIMATE SCHEME
 COURANT NUMBER ALLOWED IN SOLVING THE ADVECTION TERM =  1.00    
          0 ELEMENTS OF THE  X ARRAY USED BY THE ADV PACKAGE
          0 ELEMENTS OF THE IX ARRAY USED BY THE ADV PACKAGE

 DSP5 -- DISPERSION PACKAGE, VERSION 5, FEBRUARY 2010, INPUT READ FROM UNIT  3
      27736 ELEMENTS OF THE  X ARRAY USED BY THE DSP PACKAGE
          0 ELEMENTS OF THE IX ARRAY USED BY THE DSP PACKAGE

 SSM5 -- SINK & SOURCE MIXING PACKAGE, VERSION 5, FEBRUARY 2010, INPUT READ FROM UNIT  4
 HEADER LINE OF THE SSM PACKAGE INPUT FILE:
  T F F F F F                                           /FWEL,FDRN,FRCH,FEVT,FRIV,FGHB                                                                                                                   
 MAJOR STRESS COMPONENTS PRESENT IN THE FLOW MODEL:
  o WELL [WEL]
 MAXIMUM NUMBER OF POINT SINKS/SOURCES =    1000
      13000 ELEMENTS OF THE  X ARRAY USED BY THE SSM PACKAGE
          0 ELEMENTS OF THE IX ARRAY BY THE SSM PACKAGE

 GCG5 -- GENERALIZED CONJUGATE GRADIENT SOLVER PACKAGE, VERSION 5, FEBRUARY 2010 INPUT READ FROM UNIT  9
 MAXIMUM OF    1 OUTER ITERATIONS
        AND  200 INNER ITERATIONS ALLOWED FOR CLOSURE
 THE PRECONDITIONING TYPE SELECTED IS MODIFIED INCOMPLETE CHOLESKY (MIC).
 FULL DISPERSION TENSOR INCLUDED IN IMPLICIT SOLUTION
     116120 ELEMENTS OF THE  X ARRAY USED BY THE GCG PACKAGE
        600 ELEMENTS OF THE IX ARRAY USED BY THE GCG PACKAGE

 ..........................................
 ELEMENTS OF THE  X ARRAY USED =    195044
 ELEMENTS OF THE IX ARRAY USED =      3129
 ..........................................

 LAYER NUMBER  AQUIFER TYPE
 ------------  ------------
       1            0
       2            0
       3            0
       4            0
       5            0
       6            0
       7            0
       8            0
                                       WIDTH ALONG ROWS (DELR)  =   10.00000    
                                       WIDTH ALONG COLS (DELC)  =   10.00000    
                                       TOP ELEV. OF 1ST LAYER   =   80.00000    
                                       CELL THICKNESS (DZ)      =   10.00000     FOR LAYER  1
                                       CELL THICKNESS (DZ)      =   10.00000     FOR LAYER  2
                                       CELL THICKNESS (DZ)      =   10.00000     FOR LAYER  3
                                       CELL THICKNESS (DZ)      =   10.00000     FOR LAYER  4
                                       CELL THICKNESS (DZ)      =   10.00000     FOR LAYER  5
                                       CELL THICKNESS (DZ)      =   10.00000     FOR LAYER  6
                                       CELL THICKNESS (DZ)      =   10.00000     FOR LAYER  7
                                       CELL THICKNESS (DZ)      =   10.00000     FOR LAYER  8
                                       POROSITY                 =  0.2000000     FOR LAYER  1
                                       POROSITY                 =  0.2000000     FOR LAYER  2
                                       POROSITY                 =  0.2000000     FOR LAYER  3
                                       POROSITY                 =  0.2000000     FOR LAYER  4
                                       POROSITY                 =  0.2000000     FOR LAYER  5
                                       POROSITY                 =  0.2000000     FOR LAYER  6
                                       POROSITY                 =  0.2000000     FOR LAYER  7
                                       POROSITY                 =  0.2000000     FOR LAYER  8
                                       CONCN. BOUNDARY ARRAY    =              1 FOR LAYER  1
                                       CONCN. BOUNDARY ARRAY    =              1 FOR LAYER  2
                                       CONCN. BOUNDARY ARRAY    =              1 FOR LAYER  3
                                       CONCN. BOUNDARY ARRAY    =              1 FOR LAYER  4
                                       CONCN. BOUNDARY ARRAY    =              1 FOR LAYER  5
                                       CONCN. BOUNDARY ARRAY    =              1 FOR LAYER  6
                                       CONCN. BOUNDARY ARRAY    =              1 FOR LAYER  7
                                       CONCN. BOUNDARY ARRAY    =              1 FOR LAYER  8
                                       INITIAL CONC.: COMP.  01 =   0.000000     FOR LAYER  1
                                       INITIAL CONC.: COMP.  01 =   0.000000     FOR LAYER  2
                                       INITIAL CONC.: COMP.  01 =   0.000000     FOR LAYER  3
                                       INITIAL CONC.: COMP.  01 =   0.000000     FOR LAYER  4
                                       INITIAL CONC.: COMP.  01 =   0.000000     FOR LAYER  5
                                       INITIAL CONC.: COMP.  01 =   0.000000     FOR LAYER  6
                                       INITIAL CONC.: COMP.  01 =   0.000000     FOR LAYER  7
                                       INITIAL CONC.: COMP.  01 =   0.000000     FOR LAYER  8

 VALUE INDICATING INACTIVE CONCENTRATION CELLS =    999.9900    
 MINIMUM SATURATED THICKNESS [THKMIN] ALLOWED =  0.0000 OF TOTAL CELL THICKNESS


 OUTPUT CONTROL OPTIONS
 ----------------------

 PRINT CELL CONCENTRATION USING FORMAT CODE:    1
 PRINT PARTICLE NUMBER IN EACH CELL USING FORMAT CODE:    2
 PRINT RETARDATION FACTOR USING FORMAT CODE:    0
 DO NOT PRINT DISPERSION COEFFICIENT
 SAVE DISSOLVED PHASE CONCENTRATIONS IN UNFORMATTED FILES [MT3Dnnn.UCN]
  FOR EACH SPECIES ON UNITS 201 AND ABOVE

 NUMBER OF TIMES AT WHICH SIMULATION RESULTS ARE SAVED =   10
 TOTAL ELAPSED TIMES AT WHICH SIMULATION RESULTS ARE SAVED: 
    10.000       20.000       30.000       40.000       50.000       60.000       70.000       80.000    
    90.000       100.00    

 NUMBER OF OBSERVATION POINTS =    4
 SAVE CONCENTRATIONS AT OBSERVATION POINTS IN FILES [MT3Dnnn.OBS]
  FOR EACH SPECIES ON UNITS 401 AND ABOVE, EVERY  1 TRANSPORT STEPS
 LOCATION OF OBSERVATION POINTS
 ..............................
 NUMBER  LAYER   ROW   COLUMN
   1        7      8      3
   2        5      8      5
   3        5      9      5
   4        5     10      5

 SAVE ONE-LINE SUMMARY OF MASS BUDGETS IN FILES [MT3Dnnn.MAS]
  FOR EACH SPECIES ON UNITS 601 AND ABOVE, EVERY  1 TRANSPORT STEPS

 MAXIMUM LENGTH ALONG THE X (J) AXIS =   210.0000    
 MAXIMUM LENGTH ALONG THE Y (I) AXIS =   150.0000    
 MAXIMUM LENGTH ALONG THE Z (K) AXIS =   80.00000    


 ADVECTION SOLUTION OPTIONS
 --------------------------

 ADVECTION IS SOLVED WITH THE ULTIMATE SCHEME
 COURANT NUMBER ALLOWED IN SOLVING THE ADVECTION TERM =  1.00    


 DISPERSION INPUT PARAMETERS
 ---------------------------

                                       LONG. DISPERSIVITY (AL)  =   10.00000     FOR LAYER  1
                                       LONG. DISPERSIVITY (AL)  =   10.00000     FOR LAYER  2
                                       LONG. DISPERSIVITY (AL)  =   10.00000     FOR LAYER  3
                                       LONG. DISPERSIVITY (AL)  =   10.00000     FOR LAYER  4
                                       LONG. DISPERSIVITY (AL)  =   10.00000     FOR LAYER  5
                                       LONG. DISPERSIVITY (AL)  =   10.00000     FOR LAYER  6
                                       LONG. DISPERSIVITY (AL)  =   10.00000     FOR LAYER  7
                                       LONG. DISPERSIVITY (AL)  =   10.00000     FOR LAYER  8
                                       H. TRANS./LONG. DISP.    =  0.3000000    
                                       V. TRANS./LONG. DISP.    =  0.3000000    
                                       DIFFUSION COEFFICIENT    =   0.000000    



                                               SOLUTION BY THE GENERALIZED CONJUGATE GRADIENT METHOD
                                               -----------------------------------------------------
                                     MAXIMUM OUTER ITERATIONS ALLOWED FOR CLOSURE =        1
                                     MAXIMUM INNER ITERATIONS ALLOWED FOR CLOSURE =      200
                                                    PRECONDITIONING TYPE SELECTED =    3
                                                           ACCELERATION PARAMETER =     1.0000    
                                       CONCENTRATION CHANGE CRITERION FOR CLOSURE =    0.10000E-05
                                       GCG CONCENTRATION CHANGE PRINTOUT INTERVAL =      999


                                   ++++++++++++++++++++++++++++++++++++++++++++++++++++++++++++++
                                                       STRESS PERIOD NO.  001
                                   ++++++++++++++++++++++++++++++++++++++++++++++++++++++++++++++


 LENGTH OF CURRENT STRESS PERIOD =   100.0000    
 NUMBER OF TIME STEPS FOR CURRENT STRESS PERIOD =    1
 TIME STEP MULTIPLIER USED IN FLOW SOLUTION =   1.000000    

 ***Type of Transport Simulation is TRANSIENT

 USER-SPECIFIED TRANSPORT STEPSIZE =   4.000000     DAY
 MAXIMUM NUMBER OF TRANSPORT STEPS ALLOWED  IN ONE FLOW TIME STEP =     10000
 MULTIPLIER FOR SUCCESSIVE TRANSPORT STEPS  [USED IN IMPLICIT SCHEMES] =     1.000
 MAXIMUM TRANSPORT STEP SIZE  [USED IN IMPLICIT SCHEMES] =   0.000000     DAY

       NO    LAYER   ROW   COLUMN   CONCENTRATION       TYPE            COMPONENT
       1       7       8       3       100.0000         WELL                1


                                          ================================================
                                                         TIME STEP NO.  001
                                          ================================================

 FROM TIME =   0.0000     TO    100.00    


                    "THKSAT          " FLOW TERMS FOR TIME STEP  1, STRESS PERIOD  1 READ UNFORMATTED ON UNIT 10
                    --------------------------------------------------------------------------------------------

                    "QXX             " FLOW TERMS FOR TIME STEP  1, STRESS PERIOD  1 READ UNFORMATTED ON UNIT 10
                    --------------------------------------------------------------------------------------------

                    "QYY             " FLOW TERMS FOR TIME STEP  1, STRESS PERIOD  1 READ UNFORMATTED ON UNIT 10
                    --------------------------------------------------------------------------------------------

                    "QZZ             " FLOW TERMS FOR TIME STEP  1, STRESS PERIOD  1 READ UNFORMATTED ON UNIT 10
                    --------------------------------------------------------------------------------------------

 MAXIMUM STEPSIZE DURING WHICH ANY PARTICLE CANNOT MOVE MORE THAN ONE CELL
 =  19.90    (WHEN MIN. R.F.=1)  AT K=   7, I=   8, J=   4

 MAXIMUM STEPSIZE WHICH MEETS STABILITY CRITERION OF THE ADVECTION TERM
 (FOR PURE FINITE-DIFFERENCE OPTION, MIXELM=0) 
 =  19.51    (WHEN MIN. R.F.=1)  AT K=   7, I=   8, J=   3

                    "CNH             " FLOW TERMS FOR TIME STEP  1, STRESS PERIOD  1 READ UNFORMATTED ON UNIT 10
                    --------------------------------------------------------------------------------------------

                    "WEL             " FLOW TERMS FOR TIME STEP  1, STRESS PERIOD  1 READ UNFORMATTED ON UNIT 10
                    --------------------------------------------------------------------------------------------


 TOTAL NUMBER OF POINT SOURCES/SINKS PRESENT IN THE FLOW MODEL =   241

 MAXIMUM STEPSIZE WHICH MEETS STABILITY CRITERION OF THE SINK & SOURCE TERM
 =  20.00    (WHEN MIN. R.F.=1)  AT K=   1, I=   1, J=   1

 MAXIMUM STEPSIZE WHICH MEETS STABILITY CRITERION OF THE DISPERSION TERM
 =  6.219    (WHEN MIN. R.F.=1)  AT K=   7, I=   8, J=   3


     1 CALLS TO GCG PACKAGE FOR TRANSPORT TIME STEP   1 IN FLOW TIME STEP   1 STRESS PERIOD   1
     3 TOTAL ITERATIONS
     1 CALLS TO GCG PACKAGE FOR TRANSPORT TIME STEP   2 IN FLOW TIME STEP   1 STRESS PERIOD   1
     3 TOTAL ITERATIONS
     1 CALLS TO GCG PACKAGE FOR TRANSPORT TIME STEP   3 IN FLOW TIME STEP   1 STRESS PERIOD   1
     3 TOTAL ITERATIONS



 >>>>>>>>>>>>>>>>>>>>>>>>>>>>>>>>>>>>>>>>>>>>>>>>>>>>>>>FOR COMPONENT NO. 01<<<<<<<<<<<<<<<<<<<<<<<<<<<<<<<<<<<<<<<<<<<<<<<<<<<<<<<


                                            -------------------------------------------
                                                      TRANSPORT STEP NO.    3
                                            -------------------------------------------

 TOTAL ELAPSED TIME SINCE BEGINNING OF SIMULATION =   10.00000     DAY
 .....................................................................

                     CONCENTRATIONS   IN LAYER  1 AT END OF TRANSPORT STEP    3, TIME STEP  1, STRESS PERIOD  1
                     ------------------------------------------------------------------------------------------

           1          2          3          4          5          6          7          8          9         10         11
          12         13         14         15         16         17         18         19         20         21
 ..............................................................................................................................
   1   5.204E-14  6.358E-14  7.001E-14  6.399E-14  4.705E-14  2.853E-14  1.470E-14  6.612E-15  2.646E-15  9.556E-16  3.142E-16
       9.474E-17  2.640E-17  6.858E-18  1.675E-18  3.882E-19  8.595E-20  1.838E-20  3.801E-21  7.578E-22  1.173E-22
   2   4.745E-13  5.949E-13  6.716E-13  6.130E-13  4.404E-13  2.577E-13  1.273E-13  5.468E-14  2.089E-14  7.201E-15  2.261E-15
       6.518E-16  1.739E-16  4.337E-17  1.020E-17  2.282E-18  4.909E-19  1.021E-19  2.057E-20  4.005E-21  6.153E-22
   3   4.346E-12  5.607E-12  6.507E-12  5.921E-12  4.148E-12  2.337E-12  1.104E-12  4.530E-13  1.652E-13  5.435E-14  1.631E-14
       4.503E-15  1.153E-15  2.767E-16  6.283E-17  1.365E-17  2.861E-18  5.802E-19  1.142E-19  2.177E-20  3.328E-21
   4   3.581E-11  4.781E-11  5.730E-11  5.190E-11  3.528E-11  1.903E-11  8.564E-12  3.340E-12  1.158E-12  3.627E-13  1.038E-13
       2.738E-14  6.721E-15  1.552E-15  3.404E-16  7.193E-17  1.468E-17  2.903E-18  5.582E-19  1.042E-19  1.586E-20
   5   2.563E-10  3.565E-10  4.439E-10  3.990E-10  2.616E-10  1.343E-10  5.726E-11  2.112E-11  6.933E-12  2.060E-12  5.607E-13
       1.411E-13  3.318E-14  7.370E-15  1.568E-15  3.218E-16  6.389E-17  1.232E-17  2.315E-18  4.234E-19  6.421E-20
   6   1.507E-09  2.200E-09  2.868E-09  2.549E-09  1.601E-09  7.772E-10  3.118E-10  1.082E-10  3.350E-11  9.415E-12  2.431E-12
       5.830E-13  1.313E-13  2.815E-14  5.809E-15  1.158E-15  2.238E-16  4.211E-17  7.736E-18  1.387E-18  2.097E-19
   7   6.571E-09  1.016E-08  1.397E-08  1.222E-08  7.297E-09  3.322E-09  1.247E-09  4.056E-10  1.180E-10  3.130E-11  7.666E-12
       1.753E-12  3.791E-13  7.877E-14  1.578E-14  3.059E-15  5.767E-16  1.061E-16  1.910E-17  3.363E-18  5.076E-19
   8   1.666E-08  2.744E-08  4.015E-08  3.435E-08  1.937E-08  8.241E-09  2.890E-09  8.822E-10  2.420E-10  6.088E-11  1.423E-11
       3.129E-12  6.576E-13  1.331E-13  2.604E-14  4.949E-15  9.170E-16  1.662E-16  2.953E-17  5.144E-18  7.773E-19
   9   6.571E-09  1.016E-08  1.397E-08  1.222E-08  7.296E-09  3.321E-09  1.245E-09  4.037E-10  1.167E-10  3.071E-11  7.472E-12
       1.704E-12  3.694E-13  7.715E-14  1.557E-14  3.049E-15  5.812E-16  1.082E-16  1.974E-17  3.524E-18  5.381E-19
  10   1.507E-09  2.200E-09  2.867E-09  2.548E-09  1.600E-09  7.752E-10  3.096E-10  1.065E-10  3.248E-11  8.983E-12  2.292E-12
       5.472E-13  1.237E-13  2.681E-14  5.618E-15  1.141E-15  2.255E-16  4.348E-17  8.200E-18  1.510E-18  2.334E-19
  11   2.560E-10  3.559E-10  4.430E-10  3.979E-10  2.604E-10  1.330E-10  5.610E-11  2.034E-11  6.529E-12  1.897E-12  5.080E-13
       1.271E-13  3.007E-14  6.790E-15  1.477E-15  3.115E-16  6.388E-17  1.277E-17  2.493E-18  4.745E-19  7.423E-20
  12   3.558E-11  4.746E-11  5.682E-11  5.136E-11  3.472E-11  1.854E-11  8.198E-12  3.119E-12  1.051E-12  3.202E-13  8.990E-14
       2.357E-14  5.832E-15  1.375E-15  3.109E-16  6.798E-17  1.445E-17  2.994E-18  6.051E-19  1.190E-19  1.884E-20
  13   4.262E-12  5.487E-12  6.358E-12  5.764E-12  4.000E-12  2.216E-12  1.023E-12  4.069E-13  1.435E-13  4.580E-14  1.346E-14
       3.691E-15  9.545E-16  2.347E-16  5.529E-17  1.255E-17  2.759E-18  5.914E-19  1.236E-19  2.511E-20  4.021E-21
  14   4.542E-13  5.675E-13  6.395E-13  5.804E-13  4.115E-13  2.357E-13  1.131E-13  4.694E-14  1.729E-14  5.770E-15  1.772E-15
       5.077E-16  1.370E-16  3.511E-17  8.605E-18  2.029E-18  4.623E-19  1.023E-19  2.209E-20  4.630E-21  7.493E-22
  15   4.803E-14  5.839E-14  6.414E-14  5.823E-14  4.212E-14  2.492E-14  1.244E-14  5.390E-15  2.077E-15  7.258E-16  2.335E-16
       6.999E-17  1.975E-17  5.289E-18  1.353E-18  3.324E-19  7.880E-20  1.810E-20  4.043E-21  8.755E-22  1.434E-22

                     CONCENTRATIONS   IN LAYER  2 AT END OF TRANSPORT STEP    3, TIME STEP  1, STRESS PERIOD  1
                     ------------------------------------------------------------------------------------------

           1          2          3          4          5          6          7          8          9         10         11
          12         13         14         15         16         17         18         19         20         21
 ..............................................................................................................................
   1   4.038E-13  5.062E-13  5.716E-13  5.216E-13  3.748E-13  2.193E-13  1.083E-13  4.651E-14  1.777E-14  6.122E-15  1.922E-15
       5.540E-16  1.479E-16  3.687E-17  8.671E-18  1.941E-18  4.177E-19  8.690E-20  1.752E-20  3.411E-21  5.243E-22
   2   3.984E-12  5.151E-12  5.990E-12  5.450E-12  3.810E-12  2.140E-12  1.008E-12  4.117E-13  1.495E-13  4.899E-14  1.464E-14
       4.025E-15  1.027E-15  2.454E-16  5.552E-17  1.202E-17  2.512E-18  5.080E-19  9.969E-20  1.894E-20  2.891E-21
   3   3.944E-11  5.280E-11  6.345E-11  5.745E-11  3.895E-11  2.094E-11  9.382E-12  3.641E-12  1.256E-12  3.916E-13  1.115E-13
       2.928E-14  7.155E-15  1.645E-15  3.593E-16  7.563E-17  1.537E-17  3.029E-18  5.803E-19  1.079E-19  1.640E-20
   4   3.531E-10  4.928E-10  6.156E-10  5.531E-10  3.616E-10  1.848E-10  7.838E-11  2.875E-11  9.384E-12  2.773E-12  7.504E-13
       1.878E-13  4.391E-14  9.704E-15  2.056E-15  4.198E-16  8.297E-17  1.593E-17  2.979E-18  5.422E-19  8.203E-20
   5   2.762E-09  4.051E-09  5.302E-09  4.709E-09  2.946E-09  1.422E-09  5.666E-10  1.954E-10  6.004E-11  1.675E-11  4.295E-12
       1.023E-12  2.287E-13  4.875E-14  9.998E-15  1.980E-15  3.804E-16  7.113E-17  1.299E-17  2.315E-18  3.489E-19
   6   1.786E-08  2.781E-08  3.850E-08  3.361E-08  1.995E-08  9.009E-09  3.349E-09  1.079E-09  3.105E-10  8.151E-11  1.975E-11
       4.472E-12  9.585E-13  1.973E-13  3.915E-14  7.520E-15  1.405E-15  2.560E-16  4.565E-17  7.965E-18  1.198E-18
   7   8.611E-08  1.440E-07  2.133E-07  1.818E-07  1.013E-07  4.238E-08  1.458E-08  4.360E-09  1.172E-09  2.886E-10  6.607E-11
       1.424E-11  2.941E-12  5.845E-13  1.123E-13  2.094E-14  3.809E-15  6.777E-16  1.183E-16  2.024E-17  3.039E-18
   8   2.416E-07  4.378E-07  7.033E-07  5.796E-07  2.998E-07  1.155E-07  3.665E-08  1.017E-08  2.556E-09  5.935E-10  1.292E-10
       2.686E-11  5.366E-12  1.036E-12  1.939E-13  3.538E-14  6.312E-15  1.104E-15  1.900E-16  3.211E-17  4.829E-18
   9   8.611E-08  1.440E-07  2.133E-07  1.818E-07  1.012E-07  4.237E-08  1.457E-08  4.346E-09  1.162E-09  2.848E-10  6.503E-11
       1.404E-11  2.914E-12  5.833E-13  1.131E-13  2.134E-14  3.930E-15  7.085E-16  1.254E-16  2.176E-17  3.312E-18
  10   1.786E-08  2.781E-08  3.849E-08  3.361E-08  1.994E-08  8.996E-09  3.334E-09  1.066E-09  3.037E-10  7.890E-11  1.903E-11
       4.319E-12  9.348E-13  1.953E-13  3.949E-14  7.757E-15  1.485E-15  2.777E-16  5.091E-17  9.136E-18  1.410E-18
  11   2.759E-09  4.047E-09  5.296E-09  4.701E-09  2.937E-09  1.412E-09  5.586E-10  1.901E-10  5.749E-11  1.581E-11  4.027E-12
       9.629E-13  2.185E-13  4.758E-14  1.003E-14  2.052E-15  4.086E-16  7.942E-17  1.510E-17  2.806E-18  4.387E-19
  12   3.515E-10  4.903E-10  6.122E-10  5.494E-10  3.578E-10  1.815E-10  7.598E-11  2.737E-11  8.753E-12  2.542E-12  6.825E-13
       1.717E-13  4.090E-14  9.308E-15  2.040E-15  4.342E-16  8.987E-17  1.814E-17  3.576E-18  6.876E-19  1.089E-19
  13   3.886E-11  5.198E-11  6.245E-11  5.640E-11  3.798E-11  2.017E-11  8.882E-12  3.372E-12  1.136E-12  3.474E-13  9.810E-14
       2.591E-14  6.470E-15  1.540E-15  3.519E-16  7.766E-17  1.668E-17  3.491E-18  7.132E-19  1.418E-19  2.274E-20
  14   3.853E-12  4.974E-12  5.786E-12  5.246E-12  3.633E-12  2.008E-12  9.261E-13  3.690E-13  1.306E-13  4.194E-14  1.243E-14
       3.439E-15  8.986E-16  2.234E-16  5.324E-17  1.222E-17  2.716E-18  5.885E-19  1.244E-19  2.556E-20  4.148E-21
  15   3.798E-13  4.751E-13  5.367E-13  4.879E-13  3.465E-13  1.991E-13  9.607E-14  4.018E-14  1.495E-14  5.048E-15  1.571E-15
       4.566E-16  1.251E-16  3.257E-17  8.112E-18  1.944E-18  4.500E-19  1.011E-19  2.215E-20  4.710E-21  7.743E-22

                     CONCENTRATIONS   IN LAYER  3 AT END OF TRANSPORT STEP    3, TIME STEP  1, STRESS PERIOD  1
                     ------------------------------------------------------------------------------------------

           1          2          3          4          5          6          7          8          9         10         11
          12         13         14         15         16         17         18         19         20         21
 ..............................................................................................................................
   1   3.096E-12  3.994E-12  4.634E-12  4.217E-12  2.955E-12  1.665E-12  7.869E-13  3.228E-13  1.177E-13  3.875E-14  1.163E-14
       3.212E-15  8.230E-16  1.976E-16  4.492E-17  9.764E-18  2.049E-18  4.160E-19  8.198E-20  1.565E-20  2.393E-21
   2   3.300E-11  4.416E-11  5.306E-11  4.804E-11  3.258E-11  1.752E-11  7.853E-12  3.049E-12  1.052E-12  3.281E-13  9.348E-14
       2.455E-14  6.004E-15  1.381E-15  3.019E-16  6.359E-17  1.294E-17  2.551E-18  4.890E-19  9.103E-20  1.383E-20
   3   3.530E-10  4.926E-10  6.155E-10  5.530E-10  3.615E-10  1.848E-10  7.835E-11  2.874E-11  9.379E-12  2.771E-12  7.497E-13
       1.876E-13  4.387E-14  9.696E-15  2.054E-15  4.195E-16  8.292E-17  1.592E-17  2.978E-18  5.421E-19  8.202E-20
   4   3.435E-09  5.041E-09  6.600E-09  5.861E-09  3.666E-09  1.768E-09  7.043E-10  2.426E-10  7.450E-11  2.077E-11  5.321E-12
       1.266E-12  2.830E-13  6.027E-14  1.235E-14  2.445E-15  4.694E-16  8.772E-17  1.601E-17  2.850E-18  4.297E-19
   5   2.941E-08  4.585E-08  6.354E-08  5.547E-08  3.289E-08  1.483E-08  5.504E-09  1.769E-09  5.082E-10  1.331E-10  3.220E-11
       7.272E-12  1.556E-12  3.197E-13  6.330E-14  1.213E-14  2.262E-15  4.113E-16  7.320E-17  1.275E-17  1.916E-18
   6   2.097E-07  3.518E-07  5.228E-07  4.452E-07  2.473E-07  1.031E-07  3.533E-08  1.051E-08  2.810E-09  6.887E-10  1.569E-10
       3.365E-11  6.918E-12  1.368E-12  2.615E-13  4.853E-14  8.781E-15  1.554E-15  2.698E-16  4.594E-17  6.890E-18
   7   1.125E-06  2.060E-06  3.338E-06  2.742E-06  1.407E-06  5.354E-07  1.677E-07  4.586E-08  1.135E-08  2.595E-09  5.565E-10
       1.142E-10  2.250E-11  4.280E-12  7.901E-13  1.421E-13  2.499E-14  4.311E-15  7.310E-16  1.219E-16  1.827E-17
   8   3.525E-06  7.149E-06  1.290E-05  1.007E-05  4.696E-06  1.612E-06  4.584E-07  1.150E-07  2.638E-08  5.653E-09  1.157E-09
       2.273E-10  4.314E-11  7.943E-12  1.425E-12  2.500E-13  4.304E-14  7.284E-15  1.215E-15  1.997E-16  3.000E-17
   9   1.125E-06  2.060E-06  3.338E-06  2.742E-06  1.407E-06  5.354E-07  1.676E-07  4.576E-08  1.129E-08  2.578E-09  5.534E-10
       1.140E-10  2.262E-11  4.344E-12  8.107E-13  1.476E-13  2.630E-14  4.599E-15  7.907E-16  1.337E-16  2.036E-17
  10   2.097E-07  3.518E-07  5.228E-07  4.451E-07  2.472E-07  1.030E-07  3.523E-08  1.044E-08  2.773E-09  6.769E-10  1.545E-10
       3.342E-11  6.966E-12  1.403E-12  2.741E-13  5.211E-14  9.678E-15  1.760E-15  3.142E-16  5.504E-17  8.508E-18
  11   2.939E-08  4.582E-08  6.350E-08  5.542E-08  3.283E-08  1.477E-08  5.456E-09  1.739E-09  4.952E-10  1.290E-10  3.128E-11
       7.157E-12  1.562E-12  3.296E-13  6.737E-14  1.338E-14  2.592E-15  4.908E-16  9.105E-17  1.654E-17  2.594E-18
  12   3.424E-09  5.024E-09  6.579E-09  5.839E-09  3.644E-09  1.749E-09  6.911E-10  2.354E-10  7.145E-11  1.978E-11  5.084E-12
       1.229E-12  2.824E-13  6.220E-14  1.327E-14  2.750E-15  5.549E-16  1.093E-16  2.106E-17  3.965E-18  6.310E-19
  13   3.494E-10  4.876E-10  6.095E-10  5.470E-10  3.561E-10  1.807E-10  7.578E-11  2.742E-11  8.829E-12  2.589E-12  7.029E-13
       1.791E-13  4.326E-14  9.986E-15  2.218E-15  4.782E-16  1.003E-16  2.053E-17  4.106E-18  8.005E-19  1.291E-19
  14   3.224E-11  4.315E-11  5.193E-11  4.694E-11  3.165E-11  1.686E-11  7.458E-12  2.852E-12  9.701E-13  3.001E-13  8.584E-14
       2.299E-14  5.827E-15  1.408E-15  3.267E-16  7.318E-17  1.593E-17  3.380E-18  7.005E-19  1.413E-19  2.308E-20
  15   2.968E-12  3.829E-12  4.454E-12  4.047E-12  2.817E-12  1.569E-12  7.313E-13  2.952E-13  1.061E-13  3.464E-14  1.045E-14
       2.947E-15  7.850E-16  1.991E-16  4.837E-17  1.132E-17  2.565E-18  5.649E-19  1.216E-19  2.542E-20  4.209E-21

                     CONCENTRATIONS   IN LAYER  4 AT END OF TRANSPORT STEP    3, TIME STEP  1, STRESS PERIOD  1
                     ------------------------------------------------------------------------------------------

           1          2          3          4          5          6          7          8          9         10         11
          12         13         14         15         16         17         18         19         20         21
 ..............................................................................................................................
   1   2.056E-11  2.742E-11  3.285E-11  2.975E-11  2.023E-11  1.092E-11  4.920E-12  1.920E-12  6.663E-13  2.089E-13  5.985E-14
       1.581E-14  3.888E-15  8.994E-16  1.977E-16  4.186E-17  8.563E-18  1.698E-18  3.273E-19  6.127E-20  9.337E-21
   2   2.377E-10  3.315E-10  4.138E-10  3.718E-10  2.432E-10  1.245E-10  5.282E-11  1.940E-11  6.339E-12  1.875E-12  5.081E-13
       1.273E-13  2.983E-14  6.604E-15  1.401E-15  2.868E-16  5.679E-17  1.092E-17  2.048E-18  3.737E-19  5.658E-20
   3   2.763E-09  4.052E-09  5.303E-09  4.710E-09  2.947E-09  1.422E-09  5.669E-10  1.954E-10  6.006E-11  1.676E-11  4.297E-12
       1.023E-12  2.290E-13  4.882E-14  1.002E-14  1.986E-15  3.816E-16  7.142E-17  1.305E-17  2.327E-18  3.511E-19
   4   2.942E-08  4.586E-08  6.356E-08  5.549E-08  3.290E-08  1.484E-08  5.507E-09  1.770E-09  5.086E-10  1.332E-10  3.223E-11
       7.282E-12  1.559E-12  3.204E-13  6.346E-14  1.217E-14  2.269E-15  4.129E-16  7.354E-17  1.281E-17  1.926E-18
   5   2.779E-07  4.665E-07  6.937E-07  5.906E-07  3.279E-07  1.366E-07  4.675E-08  1.390E-08  3.711E-09  9.083E-10  2.066E-10
       4.429E-11  9.096E-12  1.797E-12  3.432E-13  6.363E-14  1.150E-14  2.034E-15  3.528E-16  6.002E-17  9.002E-18
   6   2.209E-06  4.056E-06  6.590E-06  5.409E-06  2.768E-06  1.051E-06  3.278E-07  8.930E-08  2.201E-08  5.012E-09  1.071E-09