# MODFLOW-USG name file written by Groundwater Vistas
#xll:0.000000; yll:0.000000; rotation:0.000000;
LIST  7 PFAS_Kd.lst
BAS6  1 PFAS_Kd.bas
SMS  19 PFAS_Kd.sms
DISU 29 PFAS_Kd.dis
OC   22 PFAS_Kd.oc
BCT  45 PFAS_Kd.bct
RCH  18 PFAS_Kd.rch
CHD  199 PFAS_Kd.chd
LPF  11 PFAS_Kd.lpf
DATA(BINARY) 132 PFAS_Kd.con
DATA(BINARY) 50 PFAS_Kd.cbb
DATA(BINARY) 30 PFAS_Kd.hds
DATA(BINARY) 31 PFAS_Kd.ddn
