# File generated by Flopy version 3.5.0.dev0 on 10/30/2023 at 09:06:42.
BEGIN griddata
  strt
    CONSTANT      20.00000000
END griddata

