# File generated by Flopy version 3.5.0.dev0 on 10/30/2023 at 09:06:42.
BEGIN options
END options

BEGIN continuous  FILEOUT  disv_with_uzf.uzfobs
  uzet_41  uzet  41
  uzf-gwet_41  uzf-gwet  41
  uzet_42  uzet  42
  uzf-gwet_42  uzf-gwet  42
  uzet_43  uzet  43
  uzf-gwet_43  uzf-gwet  43
  uzet_44  uzet  44
  uzf-gwet_44  uzf-gwet  44
  uzet_45  uzet  45
  uzf-gwet_45  uzf-gwet  45
  uzet_46  uzet  46
  uzf-gwet_46  uzf-gwet  46
  uzet_47  uzet  47
  uzf-gwet_47  uzf-gwet  47
  uzet_48  uzet  48
  uzf-gwet_48  uzf-gwet  48
  uzet_49  uzet  49
  uzf-gwet_49  uzf-gwet  49
  uzet_50  uzet  50
  uzf-gwet_50  uzf-gwet  50
  uzet_141  uzet  141
  uzf-gwet_141  uzf-gwet  141
  uzet_142  uzet  142
  uzf-gwet_142  uzf-gwet  142
  uzet_143  uzet  143
  uzf-gwet_143  uzf-gwet  143
  uzet_144  uzet  144
  uzf-gwet_144  uzf-gwet  144
  uzet_145  uzet  145
  uzf-gwet_145  uzf-gwet  145
  uzet_146  uzet  146
  uzf-gwet_146  uzf-gwet  146
  uzet_147  uzet  147
  uzf-gwet_147  uzf-gwet  147
  uzet_148  uzet  148
  uzf-gwet_148  uzf-gwet  148
  uzet_149  uzet  149
  uzf-gwet_149  uzf-gwet  149
  uzet_150  uzet  150
  uzf-gwet_150  uzf-gwet  150
END continuous  FILEOUT  disv_with_uzf.uzfobs

