# File generated by Flopy version 3.5.0.dev0 on 10/30/2023 at 09:06:42.
BEGIN options
END options

BEGIN timing
  TDIS6  disv_with_uzf.tdis
END timing

BEGIN models
  gwf6  disv_with_uzf.nam  disv_with_uzf
END models

BEGIN exchanges
END exchanges

BEGIN solutiongroup  1
  ims6  disv_with_uzf.ims  disv_with_uzf
END solutiongroup  1

