begin options
  PRINT_INPUT
  PRINT_FLOWS
  SAVE_FLOWS
end options

begin dimensions
  MAXBOUND 10
end dimensions

begin period 1
#layer 1
 1 1  10.
 1 11 10. 
 1 21 10. 
 1 31 10. 
 1 41 10. 
 1 51 10. 
 1 61 10. 
 1 71 10. 
 1 81 10. 
 1 91 10. 
end period

