BEGIN OPTIONS
END OPTIONS

BEGIN DIMENSIONS
  NCPL 100
  NLAY 4
  NVERT 121
END DIMENSIONS

BEGIN GRIDDATA
  TOP
    CONSTANT 1.0
  BOTM LAYERED
    CONSTANT 0.75
    CONSTANT 0.50
    CONSTANT 0.25
    CONSTANT 0.00
  IDOMAIN LAYERED
    INTERNAL  FACTOR  1 IPRN -1
    1 0 0 0 0 0 0 0 0 1
    1 1 1 1 1 1 1 1 1 1
    1 1 1 1 1 1 1 1 1 1
    1 1 1 1 1 1 1 1 1 1
    1 1 1 1 1 1 1 1 1 1
    1 1 1 1 1 1 1 1 1 1
    1 1 1 1 1 1 1 1 1 1
    1 1 1 1 1 1 1 1 1 1
    1 1 1 1 1 1 1 1 1 1
    1 1 1 1 1 1 1 1 1 1
    CONSTANT 1
    CONSTANT 1
    CONSTANT 1
END GRIDDATA

BEGIN VERTICES
  1 0.0 10.0
  2 1.0 10.0
  3 2.0 10.0
  4 3.0 10.0
  5 4.0 10.0
  6 5.0 10.0
  7 6.0 10.0
  8 7.0 10.0
  9 8.0 10.0
  10 9.0 10.0
  11 10.0 10.0
  12 0.0 9.0
  13 1.0 9.0
  14 2.0 9.0
  15 3.0 9.0
  16 4.0 9.0
  17 5.0 9.0
  18 6.0 9.0
  19 7.0 9.0
  20 8.0 9.0
  21 9.0 9.0
  22 10.0 9.0
  23 0.0 8.0
  24 1.0 8.0
  25 2.0 8.0
  26 3.0 8.0
  27 4.0 8.0
  28 5.0 8.0
  29 6.0 8.0
  30 7.0 8.0
  31 8.0 8.0
  32 9.0 8.0
  33 10.0 8.0
  34 0.0 7.0
  35 1.0 7.0
  36 2.0 7.0
  37 3.0 7.0
  38 4.0 7.0
  39 5.0 7.0
  40 6.0 7.0
  41 7.0 7.0
  42 8.0 7.0
  43 9.0 7.0
  44 10.0 7.0
  45 0.0 6.0
  46 1.0 6.0
  47 2.0 6.0
  48 3.0 6.0
  49 4.0 6.0
  50 5.0 6.0
  51 6.0 6.0
  52 7.0 6.0
  53 8.0 6.0
  54 9.0 6.0
  55 10.0 6.0
  56 0.0 5.0
  57 1.0 5.0
  58 2.0 5.0
  59 3.0 5.0
  60 4.0 5.0
  61 5.0 5.0
  62 6.0 5.0
  63 7.0 5.0
  64 8.0 5.0
  65 9.0 5.0
  66 10.0 5.0
  67 0.0 4.0
  68 1.0 4.0
  69 2.0 4.0
  70 3.0 4.0
  71 4.0 4.0
  72 5.0 4.0
  73 6.0 4.0
  74 7.0 4.0
  75 8.0 4.0
  76 9.0 4.0
  77 10.0 4.0
  78 0.0 3.0
  79 1.0 3.0
  80 2.0 3.0
  81 3.0 3.0
  82 4.0 3.0
  83 5.0 3.0
  84 6.0 3.0
  85 7.0 3.0
  86 8.0 3.0
  87 9.0 3.0
  88 10.0 3.0
  89 0.0 2.0
  90 1.0 2.0
  91 2.0 2.0
  92 3.0 2.0
  93 4.0 2.0
  94 5.0 2.0
  95 6.0 2.0
  96 7.0 2.0
  97 8.0 2.0
  98 9.0 2.0
  99 10.0 2.0
  100 0.0 1.0
  101 1.0 1.0
  102 2.0 1.0
  103 3.0 1.0
  104 4.0 1.0
  105 5.0 1.0
  106 6.0 1.0
  107 7.0 1.0
  108 8.0 1.0
  109 9.0 1.0
  110 10.0 1.0
  111 0.0 0.0
  112 1.0 0.0
  113 2.0 0.0
  114 3.0 0.0
  115 4.0 0.0
  116 5.0 0.0
  117 6.0 0.0
  118 7.0 0.0
  119 8.0 0.0
  120 9.0 0.0
  121 10.0 0.0
END VERTICES

BEGIN CELL2D
  1 0.5 9.5 4 1 2 13 12
  2 1.5 9.5 4 2 3 14 13
  3 2.5 9.5 4 3 4 15 14
  4 3.5 9.5 4 4 5 16 15
  5 4.5 9.5 4 5 6 17 16
  6 5.5 9.5 4 6 7 18 17
  7 6.5 9.5 4 7 8 19 18
  8 7.5 9.5 4 8 9 20 19
  9 8.5 9.5 4 9 10 21 20
  10 9.5 9.5 4 10 11 22 21
  11 0.5 8.5 4 12 13 24 23
  12 1.5 8.5 4 13 14 25 24
  13 2.5 8.5 4 14 15 26 25
  14 3.5 8.5 4 15 16 27 26
  15 4.5 8.5 4 16 17 28 27
  16 5.5 8.5 4 17 18 29 28
  17 6.5 8.5 4 18 19 30 29
  18 7.5 8.5 4 19 20 31 30
  19 8.5 8.5 4 20 21 32 31
  20 9.5 8.5 4 21 22 33 32
  21 0.5 7.5 4 23 24 35 34
  22 1.5 7.5 4 24 25 36 35
  23 2.5 7.5 4 25 26 37 36
  24 3.5 7.5 4 26 27 38 37
  25 4.5 7.5 4 27 28 39 38
  26 5.5 7.5 4 28 29 40 39
  27 6.5 7.5 4 29 30 41 40
  28 7.5 7.5 4 30 31 42 41
  29 8.5 7.5 4 31 32 43 42
  30 9.5 7.5 4 32 33 44 43
  31 0.5 6.5 4 34 35 46 45
  32 1.5 6.5 4 35 36 47 46
  33 2.5 6.5 4 36 37 48 47
  34 3.5 6.5 4 37 38 49 48
  35 4.5 6.5 4 38 39 50 49
  36 5.5 6.5 4 39 40 51 50
  37 6.5 6.5 4 40 41 52 51
  38 7.5 6.5 4 41 42 53 52
  39 8.5 6.5 4 42 43 54 53
  40 9.5 6.5 4 43 44 55 54
  41 0.5 5.5 4 45 46 57 56
  42 1.5 5.5 4 46 47 58 57
  43 2.5 5.5 4 47 48 59 58
  44 3.5 5.5 4 48 49 60 59
  45 4.5 5.5 4 49 50 61 60
  46 5.5 5.5 4 50 51 62 61
  47 6.5 5.5 4 51 52 63 62
  48 7.5 5.5 4 52 53 64 63
  49 8.5 5.5 4 53 54 65 64
  50 9.5 5.5 4 54 55 66 65
  51 0.5 4.5 4 56 57 68 67
  52 1.5 4.5 4 57 58 69 68
  53 2.5 4.5 4 58 59 70 69
  54 3.5 4.5 4 59 60 71 70
  55 4.5 4.5 4 60 61 72 71
  56 5.5 4.5 4 61 62 73 72
  57 6.5 4.5 4 62 63 74 73
  58 7.5 4.5 4 63 64 75 74
  59 8.5 4.5 4 64 65 76 75
  60 9.5 4.5 4 65 66 77 76
  61 0.5 3.5 4 67 68 79 78
  62 1.5 3.5 4 68 69 80 79
  63 2.5 3.5 4 69 70 81 80
  64 3.5 3.5 4 70 71 82 81
  65 4.5 3.5 4 71 72 83 82
  66 5.5 3.5 4 72 73 84 83
  67 6.5 3.5 4 73 74 85 84
  68 7.5 3.5 4 74 75 86 85
  69 8.5 3.5 4 75 76 87 86
  70 9.5 3.5 4 76 77 88 87
  71 0.5 2.5 4 78 79 90 89
  72 1.5 2.5 4 79 80 91 90
  73 2.5 2.5 4 80 81 92 91
  74 3.5 2.5 4 81 82 93 92
  75 4.5 2.5 4 82 83 94 93
  76 5.5 2.5 4 83 84 95 94
  77 6.5 2.5 4 84 85 96 95
  78 7.5 2.5 4 85 86 97 96
  79 8.5 2.5 4 86 87 98 97
  80 9.5 2.5 4 87 88 99 98
  81 0.5 1.5 4 89 90 101 100
  82 1.5 1.5 4 90 91 102 101
  83 2.5 1.5 4 91 92 103 102
  84 3.5 1.5 4 92 93 104 103
  85 4.5 1.5 4 93 94 105 104
  86 5.5 1.5 4 94 95 106 105
  87 6.5 1.5 4 95 96 107 106
  88 7.5 1.5 4 96 97 108 107
  89 8.5 1.5 4 97 98 109 108
  90 9.5 1.5 4 98 99 110 109
  91 0.5 0.5 4 100 101 112 111
  92 1.5 0.5 4 101 102 113 112
  93 2.5 0.5 4 102 103 114 113
  94 3.5 0.5 4 103 104 115 114
  95 4.5 0.5 4 104 105 116 115
  96 5.5 0.5 4 105 106 117 116
  97 6.5 0.5 4 106 107 118 117
  98 7.5 0.5 4 107 108 119 118
  99 8.5 0.5 4 108 109 120 119
  100 9.5 0.5 4 109 110 121 120
END CELL2D

