begin options
  PRINT_INPUT
  PRINT_FLOWS
  SAVE_FLOWS
end options

begin dimensions
  MAXBOUND 10
end dimensions

begin period 1
#layer 1
 1 10  5.
 1 20  5.
 1 30  5.
 1 40  5.
 1 50  5.
 1 60  5.
 1 70  5.
 1 80  5.
 1 90  5.
 1 100 5.
end period
