MT3DMS Benchmark Test Problem #5
2D TRANSPORT IN A RADIAL FLOW FIELD
         1        31        31         1         4
 11 12 00  0  0  0  0 00 19  0  0 22 00 00 00 00 00 00 00 00 00 23 00 00
         0         0     IAPART,ISTRT
         1         0(31I2)                      -3    IBOUND-1
-1-1-1-1-1-1-1-1-1-1-1-1-1-1-1-1-1-1-1-1-1-1-1-1-1-1-1-1-1-1-1
-1 1 1 1 1 1 1 1 1 1 1 1 1 1 1 1 1 1 1 1 1 1 1 1 1 1 1 1 1 1-1    
-1 1 1 1 1 1 1 1 1 1 1 1 1 1 1 1 1 1 1 1 1 1 1 1 1 1 1 1 1 1-1    
-1 1 1 1 1 1 1 1 1 1 1 1 1 1 1 1 1 1 1 1 1 1 1 1 1 1 1 1 1 1-1    
-1 1 1 1 1 1 1 1 1 1 1 1 1 1 1 1 1 1 1 1 1 1 1 1 1 1 1 1 1 1-1    
-1 1 1 1 1 1 1 1 1 1 1 1 1 1 1 1 1 1 1 1 1 1 1 1 1 1 1 1 1 1-1    
-1 1 1 1 1 1 1 1 1 1 1 1 1 1 1 1 1 1 1 1 1 1 1 1 1 1 1 1 1 1-1    
-1 1 1 1 1 1 1 1 1 1 1 1 1 1 1 1 1 1 1 1 1 1 1 1 1 1 1 1 1 1-1    
-1 1 1 1 1 1 1 1 1 1 1 1 1 1 1 1 1 1 1 1 1 1 1 1 1 1 1 1 1 1-1    
-1 1 1 1 1 1 1 1 1 1 1 1 1 1 1 1 1 1 1 1 1 1 1 1 1 1 1 1 1 1-1    
-1 1 1 1 1 1 1 1 1 1 1 1 1 1 1 1 1 1 1 1 1 1 1 1 1 1 1 1 1 1-1    
-1 1 1 1 1 1 1 1 1 1 1 1 1 1 1 1 1 1 1 1 1 1 1 1 1 1 1 1 1 1-1    
-1 1 1 1 1 1 1 1 1 1 1 1 1 1 1 1 1 1 1 1 1 1 1 1 1 1 1 1 1 1-1    
-1 1 1 1 1 1 1 1 1 1 1 1 1 1 1 1 1 1 1 1 1 1 1 1 1 1 1 1 1 1-1    
-1 1 1 1 1 1 1 1 1 1 1 1 1 1 1 1 1 1 1 1 1 1 1 1 1 1 1 1 1 1-1    
-1 1 1 1 1 1 1 1 1 1 1 1 1 1 1 1 1 1 1 1 1 1 1 1 1 1 1 1 1 1-1    
-1 1 1 1 1 1 1 1 1 1 1 1 1 1 1 1 1 1 1 1 1 1 1 1 1 1 1 1 1 1-1    
-1 1 1 1 1 1 1 1 1 1 1 1 1 1 1 1 1 1 1 1 1 1 1 1 1 1 1 1 1 1-1    
-1 1 1 1 1 1 1 1 1 1 1 1 1 1 1 1 1 1 1 1 1 1 1 1 1 1 1 1 1 1-1    
-1 1 1 1 1 1 1 1 1 1 1 1 1 1 1 1 1 1 1 1 1 1 1 1 1 1 1 1 1 1-1    
-1 1 1 1 1 1 1 1 1 1 1 1 1 1 1 1 1 1 1 1 1 1 1 1 1 1 1 1 1 1-1    
-1 1 1 1 1 1 1 1 1 1 1 1 1 1 1 1 1 1 1 1 1 1 1 1 1 1 1 1 1 1-1    
-1 1 1 1 1 1 1 1 1 1 1 1 1 1 1 1 1 1 1 1 1 1 1 1 1 1 1 1 1 1-1    
-1 1 1 1 1 1 1 1 1 1 1 1 1 1 1 1 1 1 1 1 1 1 1 1 1 1 1 1 1 1-1    
-1 1 1 1 1 1 1 1 1 1 1 1 1 1 1 1 1 1 1 1 1 1 1 1 1 1 1 1 1 1-1    
-1 1 1 1 1 1 1 1 1 1 1 1 1 1 1 1 1 1 1 1 1 1 1 1 1 1 1 1 1 1-1    
-1 1 1 1 1 1 1 1 1 1 1 1 1 1 1 1 1 1 1 1 1 1 1 1 1 1 1 1 1 1-1    
-1 1 1 1 1 1 1 1 1 1 1 1 1 1 1 1 1 1 1 1 1 1 1 1 1 1 1 1 1 1-1    
-1 1 1 1 1 1 1 1 1 1 1 1 1 1 1 1 1 1 1 1 1 1 1 1 1 1 1 1 1 1-1    
-1 1 1 1 1 1 1 1 1 1 1 1 1 1 1 1 1 1 1 1 1 1 1 1 1 1 1 1 1 1-1    
-1-1-1-1-1-1-1-1-1-1-1-1-1-1-1-1-1-1-1-1-1-1-1-1-1-1-1-1-1-1-1
    999.99
         1        0.(5x,10f16.0)                 0    HEAD-1
   1      14.73746        15.26757        15.79502        16.31668        16.82883        17.32709        17.80647        18.26132        18.68546        19.07226
          19.41492        19.70668        19.94124        20.11312        20.21806        20.25335        20.21806        20.11312        19.94124        19.70668    
          19.41492        19.07226        18.68546        18.26132        17.80647        17.32709        16.82883        16.31668        15.79502        15.26757    
          14.73746    
   2      15.26757        15.83552        16.40341        16.96804        17.52542        18.07087        18.59879        19.10281        19.57569        20.00955    
          20.39609        20.72694        20.99414        21.19064        21.31090        21.35141        21.31090        21.19064        20.99414        20.72694    
          20.39609        20.00955        19.57569        19.10281        18.59879        18.07087        17.52542        16.96804        16.40341        15.83552    
          15.26757    
   3      15.79502        16.40341        17.01498        17.62648        18.23383        18.83201        19.41492        19.97532        20.50486        20.99414    
          21.43302        21.81103        22.11798        22.34471        22.48392        22.53086        22.48392        22.34471        22.11798        21.81103    
          21.43302        20.99414        20.50486        19.97532        19.41492        18.83201        18.23383        17.62648        17.01498        16.40341    
          15.79502    
   4      16.31668        16.96804        17.62648        18.28891        18.95122        19.60823        20.25335        20.87853        21.47414        22.02906    
          22.53086        22.96636        23.32235        23.58675        23.74971        23.80478        23.74971        23.58675        23.32235        22.96636    
          22.53086        22.02906        21.47414        20.87853        20.25335        19.60823        18.95122        18.28891        17.62648        16.96804    
          16.31668    
   5      16.82883        17.52542        18.23383        18.95122        19.67373        20.39609        21.11145        21.81103        22.48392        23.11698    
          23.69502        24.20133        24.61869        24.93080        25.12411        25.18961        25.12411        24.93080        24.61869        24.20133    
          23.69502        23.11698        22.48392        21.81103        21.11145        20.39609        19.67373        18.95122        18.23383        17.52542    
          16.82883    
   6      17.32709        18.07087        18.83201        19.60823        20.39609        21.19064        21.98498        22.76986        23.53316        24.25963    
          24.93080        25.52544        26.02073        26.39441        26.62733        26.70652        26.62733        26.39441        26.02073        25.52544    
          24.93080        24.25963        23.53316        22.76986        21.98498        21.19064        20.39609        19.60823        18.83201        18.07087    
          17.32709    
   7      17.80647        18.59879        19.41492        20.25335        21.11145        21.98498        22.86750        23.74971        24.61869        25.45713    
          26.24283        26.94891        27.54495        27.99981        28.28574        28.38338        28.28574        27.99981        27.54495        26.94891    
          26.24283        25.45713        24.61869        23.74971        22.86750        21.98498        21.11145        20.25335        19.41492        18.59879    
          17.80647    
   8      18.26132        19.10281        19.97532        20.87853        21.81103        22.76986        23.74971        24.74207        25.73395        26.70652    
          27.63387        28.48224        29.21090        29.77552        30.13458        30.25795        30.13458        29.77552        29.21090        28.48224    
          27.63387        26.70652        25.73395        24.74207        23.74971        22.76986        21.81103        20.87853        19.97532        19.10281    
          18.26132    
   9      18.68546        19.57569        20.50486        21.47414        22.48392        23.53316        24.61869        25.73395        26.86728        27.99981    
          29.10263        30.13458        31.04131        31.75871        32.22240        32.38317        32.22240        31.75871        31.04131        30.13458    
          29.10263        27.99981        26.86728        25.73395        24.61869        23.53316        22.48392        21.47414        20.50486        19.57569    
          18.68546    
  10      19.07226        20.00955        20.99414        22.02906        23.11698        24.25963        25.45713        26.70652        27.99981        29.32067    
          30.64000        31.91030        33.06083        33.99813        34.61852        34.83655        34.61852        33.99813        33.06083        31.91030    
          30.64000        29.32067        27.99981        26.70652        25.45713        24.25963        23.11698        22.02906        20.99414        20.00955    
          19.07226    
  11      19.41492        20.39609        21.43302        22.53086        23.69502        24.93080        26.24283        27.63387        29.10263        30.64000    
          32.22240        33.80162        35.29140        36.55720        37.42617        37.73829        37.42617        36.55720        35.29140        33.80162    
          32.22240        30.64000        29.10263        27.63387        26.24283        24.93080        23.69502        22.53086        21.43302        20.39609    
          19.41492    
  12      19.70668        20.72694        21.81103        22.96636        24.20133        25.52544        26.94891        28.48224        30.13458        31.91030    
          33.80162        35.77384        37.73829        39.51400        40.80729        41.28972        40.80729        39.51400        37.73829        35.77384    
          33.80162        31.91030        30.13458        28.48224        26.94891        25.52544        24.20133        22.96636        21.81103        20.72694    
          19.70668    
  13      19.94124        20.99414        22.11798        23.32235        24.61869        26.02073        27.54495        29.21090        31.04131        33.06083    
          35.29140        37.73829        40.35244        42.94207        45.02989        45.86832        45.02989        42.94207        40.35244        37.73829    
          35.29140        33.06083        31.04131        29.21090        27.54495        26.02073        24.61869        23.32235        22.11798        20.99414    
          19.94124    
  14      20.11312        21.19064        22.34471        23.58675        24.93080        26.39441        27.99981        29.77552        31.75871        33.99813    
          36.55720        39.51400        42.94207        46.80561        50.54577        52.32149        50.54577        46.80561        42.94207        39.51400    
          36.55720        33.99813        31.75871        29.77552        27.99981        26.39441        24.93080        23.58675        22.34471        21.19064    
          20.11312    
  15      20.21806        21.31090        22.48392        23.74971        25.12411        26.62733        28.28574        30.13458        32.22240        34.61852    
          37.42617        40.80729        45.02989        50.54577        57.83738        63.35326        57.83738        50.54577        45.02989        40.80729    
          37.42617        34.61852        32.22240        30.13458        28.28574        26.62733        25.12411        23.74971        22.48392        21.31090    
          20.21806    
  16      20.25335        21.35141        22.53086        23.80478        25.18961        26.70652        28.38338        30.25795        32.38317        34.83655    
          37.73829        41.28972        45.86832        52.32149        63.35326        100.0000        63.35326        52.32149        45.86832        41.28972    
          37.73829        34.83655        32.38317        30.25795        28.38338        26.70652        25.18961        23.80478        22.53086        21.35141    
          20.25335    
  17      20.21806        21.31090        22.48392        23.74971        25.12411        26.62733        28.28574        30.13458        32.22240        34.61852    
          37.42617        40.80729        45.02989        50.54577        57.83738        63.35326        57.83738        50.54577        45.02989        40.80729    
          37.42617        34.61852        32.22240        30.13458        28.28574        26.62733        25.12411        23.74971        22.48392        21.31090    
          20.21806    
  18      20.11312        21.19064        22.34471        23.58675        24.93080        26.39441        27.99981        29.77552        31.75871        33.99813    
          36.55720        39.51400        42.94207        46.80561        50.54577        52.32149        50.54577        46.80561        42.94207        39.51400    
          36.55720        33.99813        31.75871        29.77552        27.99981        26.39441        24.93080        23.58675        22.34471        21.19064    
          20.11312    
  19      19.94124        20.99414        22.11798        23.32235        24.61869        26.02073        27.54495        29.21090        31.04131        33.06083    
          35.29140        37.73829        40.35244        42.94207        45.02989        45.86832        45.02989        42.94207        40.35244        37.73829    
          35.29140        33.06083        31.04131        29.21090        27.54495        26.02073        24.61869        23.32235        22.11798        20.99414    
          19.94124    
  20      19.70668        20.72694        21.81103        22.96636        24.20133        25.52544        26.94891        28.48224        30.13458        31.91030    
          33.80162        35.77384        37.73829        39.51400        40.80729        41.28972        40.80729        39.51400        37.73829        35.77384    
          33.80162        31.91030        30.13458        28.48224        26.94891        25.52544        24.20133        22.96636        21.81103        20.72694    
          19.70668    
  21      19.41492        20.39609        21.43302        22.53086        23.69502        24.93080        26.24283        27.63387        29.10263        30.64000    
          32.22240        33.80162        35.29140        36.55720        37.42617        37.73829        37.42617        36.55720        35.29140        33.80162    
          32.22240        30.64000        29.10263        27.63387        26.24283        24.93080        23.69502        22.53086        21.43302        20.39609    
          19.41492    
  22      19.07226        20.00955        20.99414        22.02906        23.11698        24.25963        25.45713        26.70652        27.99981        29.32067    
          30.64000        31.91030        33.06083        33.99813        34.61852        34.83655        34.61852        33.99813        33.06083        31.91030    
          30.64000        29.32067        27.99981        26.70652        25.45713        24.25963        23.11698        22.02906        20.99414        20.00955    
          19.07226    
  23      18.68546        19.57569        20.50486        21.47414        22.48392        23.53316        24.61869        25.73395        26.86728        27.99981    
          29.10263        30.13458        31.04131        31.75871        32.22240        32.38317        32.22240        31.75871        31.04131        30.13458    
          29.10263        27.99981        26.86728        25.73395        24.61869        23.53316        22.48392        21.47414        20.50486        19.57569    
          18.68546    
  24      18.26132        19.10281        19.97532        20.87853        21.81103        22.76986        23.74971        24.74207        25.73395        26.70652    
          27.63387        28.48224        29.21090        29.77552        30.13458        30.25795        30.13458        29.77552        29.21090        28.48224    
          27.63387        26.70652        25.73395        24.74207        23.74971        22.76986        21.81103        20.87853        19.97532        19.10281    
          18.26132    
  25      17.80647        18.59879        19.41492        20.25335        21.11145        21.98498        22.86750        23.74971        24.61869        25.45713    
          26.24283        26.94891        27.54495        27.99981        28.28574        28.38338        28.28574        27.99981        27.54495        26.94891    
          26.24283        25.45713        24.61869        23.74971        22.86750        21.98498        21.11145        20.25335        19.41492        18.59879    
          17.80647    
  26      17.32709        18.07087        18.83201        19.60823        20.39609        21.19064        21.98498        22.76986        23.53316        24.25963    
          24.93080        25.52544        26.02073        26.39441        26.62733        26.70652        26.62733        26.39441        26.02073        25.52544    
          24.93080        24.25963        23.53316        22.76986        21.98498        21.19064        20.39609        19.60823        18.83201        18.07087    
          17.32709    
  27      16.82883        17.52542        18.23383        18.95122        19.67373        20.39609        21.11145        21.81103        22.48392        23.11698    
          23.69502        24.20133        24.61869        24.93080        25.12411        25.18961        25.12411        24.93080        24.61869        24.20133    
          23.69502        23.11698        22.48392        21.81103        21.11145        20.39609        19.67373        18.95122        18.23383        17.52542    
          16.82883    
  28      16.31668        16.96804        17.62648        18.28891        18.95122        19.60823        20.25335        20.87853        21.47414        22.02906    
          22.53086        22.96636        23.32235        23.58675        23.74971        23.80478        23.74971        23.58675        23.32235        22.96636    
          22.53086        22.02906        21.47414        20.87853        20.25335        19.60823        18.95122        18.28891        17.62648        16.96804    
          16.31668    
  29      15.79502        16.40341        17.01498        17.62648        18.23383        18.83201        19.41492        19.97532        20.50486        20.99414    
          21.43302        21.81103        22.11798        22.34471        22.48392        22.53086        22.48392        22.34471        22.11798        21.81103    
          21.43302        20.99414        20.50486        19.97532        19.41492        18.83201        18.23383        17.62648        17.01498        16.40341    
          15.79502    
  30      15.26757        15.83552        16.40341        16.96804        17.52542        18.07087        18.59879        19.10281        19.57569        20.00955    
          20.39609        20.72694        20.99414        21.19064        21.31090        21.35141        21.31090        21.19064        20.99414        20.72694    
          20.39609        20.00955        19.57569        19.10281        18.59879        18.07087        17.52542        16.96804        16.40341        15.83552    
          15.26757    
  31      14.73746        15.26757        15.79502        16.31668        16.82883        17.32709        17.80647        18.26132        18.68546        19.07226    
          19.41492        19.70668        19.94124        20.11312        20.21806        20.25335        20.21806        20.11312        19.94124        19.70668    
          19.41492        19.07226        18.68546        18.26132        17.80647        17.32709        16.82883        16.31668        15.79502        15.26757    
          14.73746    
        1.         1        1.                        PERLEN,NSTP,TSMULT
