MT3DMS Benchmark Test Problem #5
2D TRANSPORT IN A RADIAL FLOW FIELD
         1        31        31         1         1         1
DAYS   M   G
 T T T F T F F F F F
 0                                                    !LAYCON
         0       10.                                  !DELR
         0       10.                                  !DELC
         0        1.                                  !HTOP
         0        1.                                  !DZ
         0       .30                                  !PRSITY
       101         0                             3    !ICBUND-1
3
1 31 1 31  1
2 30 2 30  1
16 16 16 16 -1
       101        0.                             4    !SCONC-1
2
1 31 1 31 0
16 16 16 16 1.
   -999.00         0                                  !CINACT,thkmin
        10         2         5         4         T
       -10                            !NPRS
         4         1                  !NOBS,NPROBS
         1        16        16
         1        16        13
         1        14        14
         1        13        16
         T         1                        !CHKMAS,NPRMAS
       27.         1        1.              !PERLEN,NSTP,TSMULT
       0.3      1000       1.5        0.      !DT0 MXSTRN,TTSMULT,TTSMAX
