# File generated by Flopy version 3.5.0.dev0 on 10/30/2023 at 09:14:14.
BEGIN options
END options

BEGIN timing
  TDIS6  mst03.tdis
END timing

BEGIN models
  gwf6  gwf_mst03.nam  gwf_mst03
  gwt6  gwt_mst03.nam  gwt_mst03
END models

BEGIN exchanges
  GWF6-GWT6  mst03.gwfgwt  gwf_mst03  gwt_mst03
END exchanges

BEGIN solutiongroup  1
  ims6  gwf_mst03.ims  gwf_mst03
  ims6  gwt_mst03.ims  gwt_mst03
END solutiongroup  1

