# File generated by Flopy version 3.5.0.dev0 on 10/30/2023 at 09:14:14.
BEGIN options
  TIME_UNITS  days
END options

BEGIN dimensions
  NPER  2
END dimensions

BEGIN perioddata
       2.00000000  14       1.00000000
       2.00000000  14       1.00000000
END perioddata

