MT3DMS Benchmark Test Problem #3
2D Advection-Dispersion in a Uniform Flow Field
         1        31        46         1         4
 11 12 00  0  0  0  0 00 19  0  0 22 00 00 00 00 00 00 00 00 00 24 00 00
         0         0     IAPART,ISTRT
         1         0(46I2)                       2    IBOUND-1
-1 1 1 1 1 1 1 1 1 1 1 1 1 1 1 1 1 1 1 1 1 1 1 1 1 1 1 1 1 1 1 1 1 1 1 1 1 1 1 1 1 1 1 1 1-1
-1 1 1 1 1 1 1 1 1 1 1 1 1 1 1 1 1 1 1 1 1 1 1 1 1 1 1 1 1 1 1 1 1 1 1 1 1 1 1 1 1 1 1 1 1-1
-1 1 1 1 1 1 1 1 1 1 1 1 1 1 1 1 1 1 1 1 1 1 1 1 1 1 1 1 1 1 1 1 1 1 1 1 1 1 1 1 1 1 1 1 1-1
-1 1 1 1 1 1 1 1 1 1 1 1 1 1 1 1 1 1 1 1 1 1 1 1 1 1 1 1 1 1 1 1 1 1 1 1 1 1 1 1 1 1 1 1 1-1
-1 1 1 1 1 1 1 1 1 1 1 1 1 1 1 1 1 1 1 1 1 1 1 1 1 1 1 1 1 1 1 1 1 1 1 1 1 1 1 1 1 1 1 1 1-1
-1 1 1 1 1 1 1 1 1 1 1 1 1 1 1 1 1 1 1 1 1 1 1 1 1 1 1 1 1 1 1 1 1 1 1 1 1 1 1 1 1 1 1 1 1-1
-1 1 1 1 1 1 1 1 1 1 1 1 1 1 1 1 1 1 1 1 1 1 1 1 1 1 1 1 1 1 1 1 1 1 1 1 1 1 1 1 1 1 1 1 1-1
-1 1 1 1 1 1 1 1 1 1 1 1 1 1 1 1 1 1 1 1 1 1 1 1 1 1 1 1 1 1 1 1 1 1 1 1 1 1 1 1 1 1 1 1 1-1
-1 1 1 1 1 1 1 1 1 1 1 1 1 1 1 1 1 1 1 1 1 1 1 1 1 1 1 1 1 1 1 1 1 1 1 1 1 1 1 1 1 1 1 1 1-1
-1 1 1 1 1 1 1 1 1 1 1 1 1 1 1 1 1 1 1 1 1 1 1 1 1 1 1 1 1 1 1 1 1 1 1 1 1 1 1 1 1 1 1 1 1-1
-1 1 1 1 1 1 1 1 1 1 1 1 1 1 1 1 1 1 1 1 1 1 1 1 1 1 1 1 1 1 1 1 1 1 1 1 1 1 1 1 1 1 1 1 1-1
-1 1 1 1 1 1 1 1 1 1 1 1 1 1 1 1 1 1 1 1 1 1 1 1 1 1 1 1 1 1 1 1 1 1 1 1 1 1 1 1 1 1 1 1 1-1
-1 1 1 1 1 1 1 1 1 1 1 1 1 1 1 1 1 1 1 1 1 1 1 1 1 1 1 1 1 1 1 1 1 1 1 1 1 1 1 1 1 1 1 1 1-1
-1 1 1 1 1 1 1 1 1 1 1 1 1 1 1 1 1 1 1 1 1 1 1 1 1 1 1 1 1 1 1 1 1 1 1 1 1 1 1 1 1 1 1 1 1-1
-1 1 1 1 1 1 1 1 1 1 1 1 1 1 1 1 1 1 1 1 1 1 1 1 1 1 1 1 1 1 1 1 1 1 1 1 1 1 1 1 1 1 1 1 1-1
-1 1 1 1 1 1 1 1 1 1 1 1 1 1 1 1 1 1 1 1 1 1 1 1 1 1 1 1 1 1 1 1 1 1 1 1 1 1 1 1 1 1 1 1 1-1
-1 1 1 1 1 1 1 1 1 1 1 1 1 1 1 1 1 1 1 1 1 1 1 1 1 1 1 1 1 1 1 1 1 1 1 1 1 1 1 1 1 1 1 1 1-1
-1 1 1 1 1 1 1 1 1 1 1 1 1 1 1 1 1 1 1 1 1 1 1 1 1 1 1 1 1 1 1 1 1 1 1 1 1 1 1 1 1 1 1 1 1-1
-1 1 1 1 1 1 1 1 1 1 1 1 1 1 1 1 1 1 1 1 1 1 1 1 1 1 1 1 1 1 1 1 1 1 1 1 1 1 1 1 1 1 1 1 1-1
-1 1 1 1 1 1 1 1 1 1 1 1 1 1 1 1 1 1 1 1 1 1 1 1 1 1 1 1 1 1 1 1 1 1 1 1 1 1 1 1 1 1 1 1 1-1
-1 1 1 1 1 1 1 1 1 1 1 1 1 1 1 1 1 1 1 1 1 1 1 1 1 1 1 1 1 1 1 1 1 1 1 1 1 1 1 1 1 1 1 1 1-1
-1 1 1 1 1 1 1 1 1 1 1 1 1 1 1 1 1 1 1 1 1 1 1 1 1 1 1 1 1 1 1 1 1 1 1 1 1 1 1 1 1 1 1 1 1-1
-1 1 1 1 1 1 1 1 1 1 1 1 1 1 1 1 1 1 1 1 1 1 1 1 1 1 1 1 1 1 1 1 1 1 1 1 1 1 1 1 1 1 1 1 1-1
-1 1 1 1 1 1 1 1 1 1 1 1 1 1 1 1 1 1 1 1 1 1 1 1 1 1 1 1 1 1 1 1 1 1 1 1 1 1 1 1 1 1 1 1 1-1
-1 1 1 1 1 1 1 1 1 1 1 1 1 1 1 1 1 1 1 1 1 1 1 1 1 1 1 1 1 1 1 1 1 1 1 1 1 1 1 1 1 1 1 1 1-1
-1 1 1 1 1 1 1 1 1 1 1 1 1 1 1 1 1 1 1 1 1 1 1 1 1 1 1 1 1 1 1 1 1 1 1 1 1 1 1 1 1 1 1 1 1-1
-1 1 1 1 1 1 1 1 1 1 1 1 1 1 1 1 1 1 1 1 1 1 1 1 1 1 1 1 1 1 1 1 1 1 1 1 1 1 1 1 1 1 1 1 1-1
-1 1 1 1 1 1 1 1 1 1 1 1 1 1 1 1 1 1 1 1 1 1 1 1 1 1 1 1 1 1 1 1 1 1 1 1 1 1 1 1 1 1 1 1 1-1
-1 1 1 1 1 1 1 1 1 1 1 1 1 1 1 1 1 1 1 1 1 1 1 1 1 1 1 1 1 1 1 1 1 1 1 1 1 1 1 1 1 1 1 1 1-1
-1 1 1 1 1 1 1 1 1 1 1 1 1 1 1 1 1 1 1 1 1 1 1 1 1 1 1 1 1 1 1 1 1 1 1 1 1 1 1 1 1 1 1 1 1-1
-1 1 1 1 1 1 1 1 1 1 1 1 1 1 1 1 1 1 1 1 1 1 1 1 1 1 1 1 1 1 1 1 1 1 1 1 1 1 1 1 1 1 1 1 1-1
    999.99
         1        0.(6x,10f16.0)                 1    HEAD-1
   1     0.7291606E-03  -0.9926070E-01  -0.1992517      -0.2992441      -0.3992384      -0.4992349      -0.5992342      -0.6992369      -0.7992434      -0.8992545
        -0.9992709       -1.099293       -1.199321       -1.299357       -1.399399       -1.499448       -1.599505       -1.699568       -1.799638       -1.899712    
         -1.999791       -2.099873       -2.199958       -2.300042       -2.400126       -2.500209       -2.600288       -2.700362       -2.800432       -2.900495    
         -3.000552       -3.100601       -3.200643       -3.300678       -3.400707       -3.500729       -3.600745       -3.700756       -3.800763       -3.900766    
         -4.000765       -4.100761       -4.200756       -4.300748       -4.400739       -4.500729    
   2     0.7613877E-03  -0.9922585E-01  -0.1992140      -0.2992035      -0.3991947      -0.4991882      -0.5991843      -0.6991839      -0.7991876      -0.8991962    
        -0.9992105       -1.099231       -1.199259       -1.299295       -1.399339       -1.499392       -1.599452       -1.699521       -1.799597       -1.899680    
         -1.999767       -2.099859       -2.199953       -2.300047       -2.400141       -2.500232       -2.600320       -2.700403       -2.800479       -2.900548    
         -3.000608       -3.100661       -3.200705       -3.300741       -3.400769       -3.500789       -3.600804       -3.700812       -3.800816       -3.900815    
         -4.000812       -4.100805       -4.200796       -4.300786       -4.400774       -4.500762    
   3     0.7942841E-03  -0.9919005E-01  -0.1991751      -0.2991613      -0.3991489      -0.4991387      -0.5991310      -0.6991269      -0.7991269      -0.8991323    
        -0.9991437       -1.099162       -1.199189       -1.299225       -1.399271       -1.499326       -1.599392       -1.699467       -1.799551       -1.899642    
         -1.999740       -2.099842       -2.199947       -2.300053       -2.400158       -2.500260       -2.600358       -2.700449       -2.800533       -2.900608    
         -3.000674       -3.100729       -3.200775       -3.300811       -3.400837       -3.500856       -3.600868       -3.700873       -3.800873       -3.900869    
         -4.000861       -4.100851       -4.200839       -4.300825       -4.400810       -4.500794    
   4     0.8276192E-03  -0.9915353E-01  -0.1991351      -0.2991175      -0.3991011      -0.4990865      -0.5990744      -0.6990656      -0.7990611      -0.8990620    
        -0.9990697       -1.099085       -1.199110       -1.299146       -1.399192       -1.499251       -1.599322       -1.699404       -1.799497       -1.899598    
         -1.999708       -2.099822       -2.199940       -2.300060       -2.400177       -2.500292       -2.600401       -2.700503       -2.800596       -2.900678    
         -3.000749       -3.100807       -3.200854       -3.300890       -3.400914       -3.500930       -3.600938       -3.700939       -3.800934       -3.900925    
         -4.000914       -4.100899       -4.200882       -4.300865       -4.400846       -4.500828    
   5     0.8611061E-03  -0.9911659E-01  -0.1990944      -0.2990725      -0.3990515      -0.4990319      -0.5990144      -0.6990000      -0.7989898      -0.8989851    
        -0.9989877       -1.098999       -1.199021       -1.299055       -1.399102       -1.499164       -1.599240       -1.699330       -1.799433       -1.899547    
         -1.999670       -2.099799       -2.199933       -2.300067       -2.400200       -2.500330       -2.600453       -2.700567       -2.800670       -2.900760    
         -3.000836       -3.100898       -3.200945       -3.300979       -3.401001       -3.501012       -3.601015       -3.701010       -3.801000       -3.900985    
         -4.000968       -4.100948       -4.200927       -4.300905       -4.400884       -4.500861    
   6     0.8943941E-03  -0.9907962E-01  -0.1990532      -0.2990267      -0.3990005      -0.4989752      -0.5989514      -0.6989303      -0.7989129      -0.8989012    
        -0.9988968       -1.098902       -1.198919       -1.298950       -1.398997       -1.499062       -1.599144       -1.699244       -1.799359       -1.899487    
         -1.999626       -2.099772       -2.199924       -2.300076       -2.400227       -2.500374       -2.600513       -2.700641       -2.800756       -2.900856    
         -3.000938       -3.101002       -3.201050       -3.301081       -3.401098       -3.501103       -3.601099       -3.701087       -3.801070       -3.901048    
         -4.001025       -4.100999       -4.200973       -4.300947       -4.400920       -4.500895    
   7     0.9270667E-03  -0.9904306E-01  -0.1990122      -0.2989807      -0.3989487      -0.4989169      -0.5988858      -0.6988567      -0.7988307      -0.8988099    
        -0.9987965       -1.098793       -1.198803       -1.298829       -1.398875       -1.498942       -1.599031       -1.699141       -1.799271       -1.899416    
         -1.999574       -2.099741       -2.199913       -2.300087       -2.400259       -2.500426       -2.600584       -2.700729       -2.800858       -2.900969    
         -3.001058       -3.101125       -3.201170       -3.301197       -3.401207       -3.501204       -3.601190       -3.701169       -3.801143       -3.901114    
         -4.001083       -4.101051       -4.201019       -4.300988       -4.400957       -4.500927    
   8     0.9586403E-03  -0.9900746E-01  -0.1989720      -0.2989350      -0.3988968      -0.4988578      -0.5988185      -0.6987799      -0.7987435      -0.8987113    
        -0.9986860       -1.098671       -1.198671       -1.298689       -1.398732       -1.498800       -1.598897       -1.699020       -1.799167       -1.899333    
         -1.999514       -2.099704       -2.199901       -2.300099       -2.400295       -2.500486       -2.600667       -2.700833       -2.800980       -2.901103    
         -3.001200       -3.101268       -3.201310       -3.301329       -3.401329       -3.501314       -3.601289       -3.701256       -3.801220       -3.901181    
         -4.001142       -4.101103       -4.201065       -4.301028       -4.400992       -4.500958    
   9     0.9885747E-03  -0.9897348E-01  -0.1989332      -0.2988907      -0.3988458      -0.4987989      -0.5987504      -0.6987011      -0.7986523      -0.8986060    
        -0.9985653       -1.098534       -1.198519       -1.298526       -1.398561       -1.498630       -1.598735       -1.698875       -1.799043       -1.899235    
         -1.999443       -2.099662       -2.199887       -2.300113       -2.400338       -2.500557       -2.600765       -2.700957       -2.801125       -2.901264    
         -3.001370       -3.101439       -3.201474       -3.301481       -3.401465       -3.501435       -3.601394       -3.701348       -3.801299       -3.901249    
         -4.001201       -4.101154       -4.201109       -4.301066       -4.401027       -4.500988    
  10     0.1016279E-02  -0.9894180E-01  -0.1988968      -0.2988486      -0.3987969      -0.4987418      -0.5986833      -0.6986220      -0.7985587      -0.8984953    
        -0.9984349       -1.098382       -1.198345       -1.298333       -1.398356       -1.498424       -1.598539       -1.698699       -1.798897       -1.899121    
         -1.999362       -2.099614       -2.199871       -2.300129       -2.400386       -2.500638       -2.600879       -2.701103       -2.801300       -2.901461    
         -3.001576       -3.101644       -3.201667       -3.301655       -3.401618       -3.501565       -3.601505       -3.701441       -3.801378       -3.901316    
         -4.001258       -4.101203       -4.201151       -4.301103       -4.401058       -4.501016    
  11     0.1041137E-02  -0.9891319E-01  -0.1988637      -0.2988099      -0.3987515      -0.4986880      -0.5986192      -0.6985449      -0.7984654      -0.8983819    
        -0.9982970       -1.098216       -1.198147       -1.298104       -1.398106       -1.498168       -1.598297       -1.698488       -1.798724       -1.898989    
         -1.999271       -2.099560       -2.199853       -2.300147       -2.400440       -2.500729       -2.601011       -2.701276       -2.801512       -2.901703    
         -3.001832       -3.101894       -3.201895       -3.301853       -3.401784       -3.501703       -3.601618       -3.701534       -3.801455       -3.901381    
         -4.001312       -4.101248       -4.201190       -4.301136       -4.401087       -4.501041    
  12     0.1062533E-02  -0.9888842E-01  -0.1988348      -0.2987759      -0.3987111      -0.4986397      -0.5985606      -0.6984731      -0.7983764      -0.8982704    
        -0.9981561       -1.098037       -1.197923       -1.297832       -1.397794       -1.497842       -1.597992       -1.698230       -1.798523       -1.898843    
         -1.999172       -2.099504       -2.199835       -2.300165       -2.400496       -2.500828       -2.601157       -2.701477       -2.801770       -2.902008    
         -3.002158       -3.102206       -3.202168       -3.302077       -3.401963       -3.501844       -3.601729       -3.701623       -3.801527       -3.901439    
         -4.001360       -4.101289       -4.201224       -4.301165       -4.401112       -4.501062    
  13     0.1079884E-02  -0.9886822E-01  -0.1988111      -0.2987478      -0.3986775      -0.4985989      -0.5985104      -0.6984105      -0.7982969      -0.8981676    
        -0.9980206       -1.097856       -1.197678       -1.297508       -1.397392       -1.497407       -1.597596       -1.697917       -1.798297       -1.898688    
         -1.999073       -2.099448       -2.199817       -2.300183       -2.400552       -2.500927       -2.601312       -2.701703       -2.802082       -2.902403    
         -3.002593       -3.102608       -3.202492       -3.302322       -3.402144       -3.501979       -3.601832       -3.701703       -3.801589       -3.901489    
         -4.001401       -4.101322       -4.201252       -4.301188       -4.401132       -4.501080    
  14     0.1092683E-02  -0.9885327E-01  -0.1987934      -0.2987268      -0.3986521      -0.4985678      -0.5984718      -0.6983615      -0.7982333      -0.8980828    
        -0.9979038       -1.097689       -1.197431       -1.297135       -1.396856       -1.496779       -1.597064       -1.697554       -1.798064       -1.898542    
         -1.998984       -2.099400       -2.199802       -2.300198       -2.400600       -2.501016       -2.601458       -2.701936       -2.802446       -2.902935    
         -3.003221       -3.103144       -3.202865       -3.302569       -3.402311       -3.502096       -3.601917       -3.701766       -3.801638       -3.901528    
         -4.001432       -4.101348       -4.201273       -4.301206       -4.401147       -4.501093    
  15     0.1100531E-02  -0.9884407E-01  -0.1987825      -0.2987138      -0.3986363      -0.4985483      -0.5984473      -0.6983300      -0.7981918      -0.8980262    
        -0.9978229       -1.097566       -1.197230       -1.296769       -1.396136       -1.495687       -1.596347       -1.697194       -1.797872       -1.898432    
         -1.998920       -2.099367       -2.199791       -2.300209       -2.400633       -2.501080       -2.601568       -2.702128       -2.802806       -2.903652    
         -3.004313       -3.103864       -3.203231       -3.302770       -3.402434       -3.502177       -3.601974       -3.701808       -3.801670       -3.901552    
         -4.001451       -4.101364       -4.201286       -4.301217       -4.401156       -4.501101    
  16     0.1103177E-02  -0.9884097E-01  -0.1987789      -0.2987094      -0.3986309      -0.4985417      -0.5984389      -0.6983193      -0.7981774      -0.8980061    
        -0.9977937       -1.097520       -1.197148       -1.296594       -1.395587       -1.492025       -1.595800       -1.697021       -1.797794       -1.898390    
         -1.998897       -2.099355       -2.199788       -2.300212       -2.400645       -2.501103       -2.601610       -2.702206       -2.802979       -2.904200    
         -3.007975       -3.104413       -3.203406       -3.302852       -3.402480       -3.502206       -3.601994       -3.701822       -3.801681       -3.901561    
         -4.001458       -4.101369       -4.201291       -4.301221       -4.401159       -4.501103    
  17     0.1100531E-02  -0.9884407E-01  -0.1987825      -0.2987138      -0.3986363      -0.4985483      -0.5984473      -0.6983300      -0.7981918      -0.8980262    
        -0.9978229       -1.097566       -1.197230       -1.296769       -1.396136       -1.495687       -1.596347       -1.697194       -1.797872       -1.898432    
         -1.998920       -2.099367       -2.199791       -2.300209       -2.400633       -2.501080       -2.601568       -2.702128       -2.802806       -2.903652    
         -3.004313       -3.103864       -3.203231       -3.302770       -3.402434       -3.502177       -3.601974       -3.701808       -3.801670       -3.901552    
         -4.001451       -4.101364       -4.201286       -4.301217       -4.401156       -4.501101    
  18     0.1092683E-02  -0.9885327E-01  -0.1987934      -0.2987268      -0.3986521      -0.4985678      -0.5984718      -0.6983615      -0.7982333      -0.8980828    
        -0.9979038       -1.097689       -1.197431       -1.297135       -1.396856       -1.496779       -1.597064       -1.697554       -1.798064       -1.898542    
         -1.998984       -2.099400       -2.199802       -2.300198       -2.400600       -2.501016       -2.601458       -2.701936       -2.802446       -2.902935    
         -3.003221       -3.103144       -3.202865       -3.302569       -3.402311       -3.502096       -3.601917       -3.701766       -3.801638       -3.901528    
         -4.001432       -4.101348       -4.201273       -4.301206       -4.401147       -4.501093    
  19     0.1079884E-02  -0.9886822E-01  -0.1988111      -0.2987478      -0.3986775      -0.4985989      -0.5985104      -0.6984105      -0.7982969      -0.8981676    
        -0.9980206       -1.097856       -1.197678       -1.297508       -1.397392       -1.497407       -1.597596       -1.697917       -1.798297       -1.898688    
         -1.999073       -2.099448       -2.199817       -2.300183       -2.400552       -2.500927       -2.601312       -2.701703       -2.802082       -2.902403    
         -3.002593       -3.102608       -3.202492       -3.302322       -3.402144       -3.501979       -3.601832       -3.701703       -3.801589       -3.901489    
         -4.001401       -4.101322       -4.201252       -4.301188       -4.401132       -4.501080    
  20     0.1062533E-02  -0.9888842E-01  -0.1988348      -0.2987759      -0.3987111      -0.4986397      -0.5985606      -0.6984731      -0.7983764      -0.8982704    
        -0.9981561       -1.098037       -1.197923       -1.297832       -1.397794       -1.497842       -1.597992       -1.698230       -1.798523       -1.898843    
         -1.999172       -2.099504       -2.199835       -2.300165       -2.400496       -2.500828       -2.601157       -2.701477       -2.801770       -2.902008    
         -3.002158       -3.102206       -3.202168       -3.302077       -3.401963       -3.501844       -3.601729       -3.701623       -3.801527       -3.901439    
         -4.001360       -4.101289       -4.201224       -4.301165       -4.401112       -4.501062    
  21     0.1041137E-02  -0.9891319E-01  -0.1988637      -0.2988099      -0.3987515      -0.4986880      -0.5986192      -0.6985449      -0.7984654      -0.8983819    
        -0.9982970       -1.098216       -1.198147       -1.298104       -1.398106       -1.498168       -1.598297       -1.698488       -1.798724       -1.898989    
         -1.999271       -2.099560       -2.199853       -2.300147       -2.400440       -2.500729       -2.601011       -2.701276       -2.801512       -2.901703    
         -3.001832       -3.101894       -3.201895       -3.301853       -3.401784       -3.501703       -3.601618       -3.701534       -3.801455       -3.901381    
         -4.001312       -4.101248       -4.201190       -4.301136       -4.401087       -4.501041    
  22     0.1016279E-02  -0.9894180E-01  -0.1988968      -0.2988486      -0.3987969      -0.4987418      -0.5986833      -0.6986220      -0.7985587      -0.8984953    
        -0.9984349       -1.098382       -1.198345       -1.298333       -1.398356       -1.498424       -1.598539       -1.698699       -1.798897       -1.899121    
         -1.999362       -2.099614       -2.199871       -2.300129       -2.400386       -2.500638       -2.600879       -2.701103       -2.801300       -2.901461    
         -3.001576       -3.101644       -3.201667       -3.301655       -3.401618       -3.501565       -3.601505       -3.701441       -3.801378       -3.901316    
         -4.001258       -4.101203       -4.201151       -4.301103       -4.401058       -4.501016    
  23     0.9885747E-03  -0.9897348E-01  -0.1989332      -0.2988907      -0.3988458      -0.4987989      -0.5987504      -0.6987011      -0.7986523      -0.8986060    
        -0.9985653       -1.098534       -1.198519       -1.298526       -1.398561       -1.498630       -1.598735       -1.698875       -1.799043       -1.899235    
         -1.999443       -2.099662       -2.199887       -2.300113       -2.400338       -2.500557       -2.600765       -2.700957       -2.801125       -2.901264    
         -3.001370       -3.101439       -3.201474       -3.301481       -3.401465       -3.501435       -3.601394       -3.701348       -3.801299       -3.901249    
         -4.001201       -4.101154       -4.201109       -4.301066       -4.401027       -4.500988    
  24     0.9586403E-03  -0.9900746E-01  -0.1989720      -0.2989350      -0.3988968      -0.4988578      -0.5988185      -0.6987799      -0.7987435      -0.8987113    
        -0.9986860       -1.098671       -1.198671       -1.298689       -1.398732       -1.498800       -1.598897       -1.699020       -1.799167       -1.899333    
         -1.999514       -2.099704       -2.199901       -2.300099       -2.400295       -2.500486       -2.600667       -2.700833       -2.800980       -2.901103    
         -3.001200       -3.101268       -3.201310       -3.301329       -3.401329       -3.501314       -3.601289       -3.701256       -3.801220       -3.901181    
         -4.001142       -4.101103       -4.201065       -4.301028       -4.400992       -4.500958    
  25     0.9270667E-03  -0.9904306E-01  -0.1990122      -0.2989807      -0.3989487      -0.4989169      -0.5988858      -0.6988567      -0.7988307      -0.8988099    
        -0.9987965       -1.098793       -1.198803       -1.298829       -1.398875       -1.498942       -1.599031       -1.699141       -1.799271       -1.899416    
         -1.999574       -2.099741       -2.199913       -2.300087       -2.400259       -2.500426       -2.600584       -2.700729       -2.800858       -2.900969    
         -3.001058       -3.101125       -3.201170       -3.301197       -3.401207       -3.501204       -3.601190       -3.701169       -3.801143       -3.901114    
         -4.001083       -4.101051       -4.201019       -4.300988       -4.400957       -4.500927    
  26     0.8943941E-03  -0.9907962E-01  -0.1990532      -0.2990267      -0.3990005      -0.4989752      -0.5989514      -0.6989303      -0.7989129      -0.8989012    
        -0.9988968       -1.098902       -1.198919       -1.298950       -1.398997       -1.499062       -1.599144       -1.699244       -1.799359       -1.899487    
         -1.999626       -2.099772       -2.199924       -2.300076       -2.400227       -2.500374       -2.600513       -2.700641       -2.800756       -2.900856    
         -3.000938       -3.101002       -3.201050       -3.301081       -3.401098       -3.501103       -3.601099       -3.701087       -3.801070       -3.901048    
         -4.001025       -4.100999       -4.200973       -4.300947       -4.400920       -4.500895    
  27     0.8611061E-03  -0.9911659E-01  -0.1990944      -0.2990725      -0.3990515      -0.4990319      -0.5990144      -0.6990000      -0.7989898      -0.8989851    
        -0.9989877       -1.098999       -1.199021       -1.299055       -1.399102       -1.499164       -1.599240       -1.699330       -1.799433       -1.899547    
         -1.999670       -2.099799       -2.199933       -2.300067       -2.400200       -2.500330       -2.600453       -2.700567       -2.800670       -2.900760    
         -3.000836       -3.100898       -3.200945       -3.300979       -3.401001       -3.501012       -3.601015       -3.701010       -3.801000       -3.900985    
         -4.000968       -4.100948       -4.200927       -4.300905       -4.400884       -4.500861    
  28     0.8276192E-03  -0.9915353E-01  -0.1991351      -0.2991175      -0.3991011      -0.4990865      -0.5990744      -0.6990656      -0.7990611      -0.8990620    
        -0.9990697       -1.099085       -1.199110       -1.299146       -1.399192       -1.499251       -1.599322       -1.699404       -1.799497       -1.899598    
         -1.999708       -2.099822       -2.199940       -2.300060       -2.400177       -2.500292       -2.600401       -2.700503       -2.800596       -2.900678    
         -3.000749       -3.100807       -3.200854       -3.300890       -3.400914       -3.500930       -3.600938       -3.700939       -3.800934       -3.900925    
         -4.000914       -4.100899       -4.200882       -4.300865       -4.400846       -4.500828    
  29     0.7942841E-03  -0.9919005E-01  -0.1991751      -0.2991613      -0.3991489      -0.4991387      -0.5991310      -0.6991269      -0.7991269      -0.8991323    
        -0.9991437       -1.099162       -1.199189       -1.299225       -1.399271       -1.499326       -1.599392       -1.699467       -1.799551       -1.899642    
         -1.999740       -2.099842       -2.199947       -2.300053       -2.400158       -2.500260       -2.600358       -2.700449       -2.800533       -2.900608    
         -3.000674       -3.100729       -3.200775       -3.300811       -3.400837       -3.500856       -3.600868       -3.700873       -3.800873       -3.900869    
         -4.000861       -4.100851       -4.200839       -4.300825       -4.400810       -4.500794    
  30     0.7613877E-03  -0.9922585E-01  -0.1992140      -0.2992035      -0.3991947      -0.4991882      -0.5991843      -0.6991839      -0.7991876      -0.8991962    
        -0.9992105       -1.099231       -1.199259       -1.299295       -1.399339       -1.499392       -1.599452       -1.699521       -1.799597       -1.899680    
         -1.999767       -2.099859       -2.199953       -2.300047       -2.400141       -2.500232       -2.600320       -2.700403       -2.800479       -2.900548    
         -3.000608       -3.100661       -3.200705       -3.300741       -3.400769       -3.500789       -3.600804       -3.700812       -3.800816       -3.900815    
         -4.000812       -4.100805       -4.200796       -4.300786       -4.400774       -4.500762    
  31     0.7291606E-03  -0.9926070E-01  -0.1992517      -0.2992441      -0.3992384      -0.4992349      -0.5992342      -0.6992369      -0.7992434      -0.8992545    
        -0.9992709       -1.099293       -1.199321       -1.299357       -1.399399       -1.499448       -1.599505       -1.699568       -1.799638       -1.899712    
         -1.999791       -2.099873       -2.199958       -2.300042       -2.400126       -2.500209       -2.600288       -2.700362       -2.800432       -2.900495    
         -3.000552       -3.100601       -3.200643       -3.300678       -3.400707       -3.500729       -3.600745       -3.700756       -3.800763       -3.900766    
         -4.000765       -4.100761       -4.200756       -4.300748       -4.400739       -4.500729    
        1.         1        1.                        PERLEN,NSTP,TSMULT
