# NWT Input File
# Test Problem 3 for MODFLOW-NWT
#HEADTOL  FLUXTOL MAXITEROUT THICKFACT LINMETH IPRNWT IBOTAV OPTIONS DBDREDUCE DBDINCREASE DBDGAMMA MOMFACT BACKFLAG MAXBACKITER BACKTOL BACKREDUCE
1.0E-3 100.0 1000 1.0e-5  2  1 1 SPECIFIED 0.97 0.0001 0.0  0.10 0  30 1.05 0.9  linmeth=1 (GMRES); =2 (xmd)  
2 1 3 3 1 0.0 1 5.0E-4 5.0e-4  200   XMD
