# LPF for MODFLOW, generated by Flopy.
         0     -9999         0  
         1         0
         0         0
   1.000000E+00   1.000000E+00
         0         0
         1         0
  1.001000         4         0
INTERNAL           0.013     (FREE)  0 #hk                            
   0.000000E+00   0.000000E+00   0.000000E+00   0.000000E+00   0.000000E+00   0.000000E+00   0.000000E+00   0.000000E+00   0.000000E+00   0.000000E+00   0.000000E+00   0.000000E+00   0.000000E+00   0.000000E+00   0.000000E+00   0.000000E+00   0.000000E+00   0.000000E+00   0.000000E+00   0.000000E+00   0.000000E+00   0.000000E+00   0.000000E+00   0.000000E+00   0.000000E+00   0.000000E+00   0.000000E+00   0.000000E+00   0.000000E+00   0.000000E+00   0.000000E+00   0.000000E+00   0.000000E+00   0.000000E+00   0.000000E+00   0.000000E+00   0.000000E+00   0.000000E+00   0.000000E+00   0.000000E+00   0.000000E+00   0.000000E+00   0.000000E+00   0.000000E+00   0.000000E+00   0.000000E+00   0.000000E+00   0.000000E+00   0.000000E+00   0.000000E+00   0.000000E+00   0.000000E+00   0.000000E+00   0.000000E+00   0.000000E+00   0.000000E+00   0.000000E+00   0.000000E+00   0.000000E+00   0.000000E+00   0.000000E+00   0.000000E+00   0.000000E+00   2.000000E+00   2.000000E+00   0.000000E+00   0.000000E+00   0.000000E+00   0.000000E+00   0.000000E+00   0.000000E+00   0.000000E+00   0.000000E+00   0.000000E+00   0.000000E+00   0.000000E+00   0.000000E+00   0.000000E+00   0.000000E+00   0.000000E+00   0.000000E+00
   0.000000E+00   0.000000E+00   0.000000E+00   0.000000E+00   0.000000E+00   0.000000E+00   0.000000E+00   0.000000E+00   0.000000E+00   0.000000E+00   0.000000E+00   0.000000E+00   0.000000E+00   0.000000E+00   0.000000E+00   0.000000E+00   0.000000E+00   0.000000E+00   0.000000E+00   0.000000E+00   0.000000E+00   0.000000E+00   0.000000E+00   0.000000E+00   0.000000E+00   0.000000E+00   0.000000E+00   0.000000E+00   0.000000E+00   0.000000E+00   0.000000E+00   0.000000E+00   0.000000E+00   0.000000E+00   0.000000E+00   0.000000E+00   0.000000E+00   0.000000E+00   0.000000E+00   0.000000E+00   0.000000E+00   0.000000E+00   0.000000E+00   0.000000E+00   0.000000E+00   0.000000E+00   0.000000E+00   0.000000E+00   0.000000E+00   0.000000E+00   0.000000E+00   0.000000E+00   0.000000E+00   0.000000E+00   0.000000E+00   0.000000E+00   0.000000E+00   0.000000E+00   0.000000E+00   0.000000E+00   0.000000E+00   0.000000E+00   2.000000E+00   5.000000E+00   5.000000E+00   0.000000E+00   0.000000E+00   0.000000E+00   0.000000E+00   0.000000E+00   0.000000E+00   0.000000E+00   0.000000E+00   0.000000E+00   0.000000E+00   0.000000E+00   0.000000E+00   0.000000E+00   0.000000E+00   0.000000E+00   0.000000E+00
   0.000000E+00   0.000000E+00   0.000000E+00   0.000000E+00   0.000000E+00   0.000000E+00   0.000000E+00   0.000000E+00   0.000000E+00   0.000000E+00   0.000000E+00   0.000000E+00   0.000000E+00   0.000000E+00   0.000000E+00   0.000000E+00   0.000000E+00   0.000000E+00   0.000000E+00   0.000000E+00   0.000000E+00   0.000000E+00   0.000000E+00   0.000000E+00   0.000000E+00   0.000000E+00   0.000000E+00   0.000000E+00   0.000000E+00   0.000000E+00   0.000000E+00   0.000000E+00   0.000000E+00   0.000000E+00   0.000000E+00   0.000000E+00   0.000000E+00   0.000000E+00   0.000000E+00   0.000000E+00   0.000000E+00   0.000000E+00   0.000000E+00   0.000000E+00   0.000000E+00   0.000000E+00   0.000000E+00   0.000000E+00   0.000000E+00   0.000000E+00   0.000000E+00   0.000000E+00   0.000000E+00   0.000000E+00   0.000000E+00   0.000000E+00   0.000000E+00   0.000000E+00   0.000000E+00   0.000000E+00   0.000000E+00   0.000000E+00   5.000000E+00   5.000000E+00   1.000000E+01   0.000000E+00   0.000000E+00   0.000000E+00   0.000000E+00   0.000000E+00   0.000000E+00   0.000000E+00   0.000000E+00   0.000000E+00   0.000000E+00   0.000000E+00   0.000000E+00   0.000000E+00   0.000000E+00   0.000000E+00   0.000000E+00
   0.000000E+00   0.000000E+00   0.000000E+00   0.000000E+00   0.000000E+00   0.000000E+00   0.000000E+00   0.000000E+00   0.000000E+00   0.000000E+00   0.000000E+00   0.000000E+00   0.000000E+00   0.000000E+00   0.000000E+00   0.000000E+00   0.000000E+00   0.000000E+00   0.000000E+00   0.000000E+00   0.000000E+00   0.000000E+00   0.000000E+00   0.000000E+00   0.000000E+00   0.000000E+00   0.000000E+00   0.000000E+00   0.000000E+00   0.000000E+00   0.000000E+00   0.000000E+00   0.000000E+00   0.000000E+00   0.000000E+00   0.000000E+00   0.000000E+00   0.000000E+00   0.000000E+00   0.000000E+00   0.000000E+00   0.000000E+00   0.000000E+00   0.000000E+00   0.000000E+00   0.000000E+00   0.000000E+00   0.000000E+00   0.000000E+00   0.000000E+00   0.000000E+00   0.000000E+00   0.000000E+00   0.000000E+00   0.000000E+00   0.000000E+00   0.000000E+00   0.000000E+00   0.000000E+00   0.000000E+00   0.000000E+00   2.000000E+00   5.000000E+00   5.000000E+00   1.000000E+01   0.000000E+00   0.000000E+00   0.000000E+00   0.000000E+00   0.000000E+00   0.000000E+00   0.000000E+00   0.000000E+00   0.000000E+00   0.000000E+00   0.000000E+00   0.000000E+00   0.000000E+00   0.000000E+00   0.000000E+00   0.000000E+00
   0.000000E+00   0.000000E+00   0.000000E+00   0.000000E+00   0.000000E+00   0.000000E+00   0.000000E+00   0.000000E+00   0.000000E+00   0.000000E+00   0.000000E+00   0.000000E+00   0.000000E+00   0.000000E+00   0.000000E+00   0.000000E+00   0.000000E+00   0.000000E+00   0.000000E+00   0.000000E+00   0.000000E+00   0.000000E+00   0.000000E+00   0.000000E+00   0.000000E+00   0.000000E+00   0.000000E+00   0.000000E+00   0.000000E+00   0.000000E+00   0.000000E+00   0.000000E+00   0.000000E+00   0.000000E+00   0.000000E+00   0.000000E+00   0.000000E+00   0.000000E+00   0.000000E+00   0.000000E+00   0.000000E+00   0.000000E+00   0.000000E+00   0.000000E+00   0.000000E+00   0.000000E+00   0.000000E+00   0.000000E+00   0.000000E+00   0.000000E+00   0.000000E+00   0.000000E+00   0.000000E+00   0.000000E+00   0.000000E+00   0.000000E+00   0.000000E+00   0.000000E+00   0.000000E+00   0.000000E+00   0.000000E+00   5.000000E+00   5.000000E+00   5.000000E+00   1.000000E+01   5.000000E+00   0.000000E+00   0.000000E+00   0.000000E+00   0.000000E+00   0.000000E+00   0.000000E+00   0.000000E+00   0.000000E+00   0.000000E+00   0.000000E+00   0.000000E+00   0.000000E+00   0.000000E+00   0.000000E+00   0.000000E+00
   0.000000E+00   0.000000E+00   0.000000E+00   0.000000E+00   0.000000E+00   0.000000E+00   0.000000E+00   0.000000E+00   0.000000E+00   0.000000E+00   0.000000E+00   0.000000E+00   0.000000E+00   0.000000E+00   0.000000E+00   0.000000E+00   0.000000E+00   0.000000E+00   0.000000E+00   0.000000E+00   0.000000E+00   0.000000E+00   0.000000E+00   0.000000E+00   0.000000E+00   0.000000E+00   0.000000E+00   0.000000E+00   0.000000E+00   0.000000E+00   0.000000E+00   0.000000E+00   0.000000E+00   0.000000E+00   0.000000E+00   0.000000E+00   0.000000E+00   0.000000E+00   0.000000E+00   0.000000E+00   0.000000E+00   0.000000E+00   0.000000E+00   0.000000E+00   0.000000E+00   0.000000E+00   0.000000E+00   0.000000E+00   0.000000E+00   0.000000E+00   0.000000E+00   0.000000E+00   0.000000E+00   0.000000E+00   0.000000E+00   0.000000E+00   0.000000E+00   0.000000E+00   0.000000E+00   0.000000E+00   0.000000E+00   5.000000E+00   5.000000E+00   5.000000E+00   1.000000E+01   1.000000E+01   5.000000E+00   0.000000E+00   0.000000E+00   0.000000E+00   0.000000E+00   0.000000E+00   0.000000E+00   0.000000E+00   0.000000E+00   0.000000E+00   0.000000E+00   0.000000E+00   0.000000E+00   0.000000E+00   0.000000E+00
   0.000000E+00   0.000000E+00   0.000000E+00   0.000000E+00   0.000000E+00   0.000000E+00   0.000000E+00   0.000000E+00   0.000000E+00   0.000000E+00   0.000000E+00   0.000000E+00   0.000000E+00   0.000000E+00   0.000000E+00   0.000000E+00   0.000000E+00   0.000000E+00   0.000000E+00   0.000000E+00   0.000000E+00   0.000000E+00   0.000000E+00   0.000000E+00   0.000000E+00   0.000000E+00   0.000000E+00   0.000000E+00   0.000000E+00   0.000000E+00   0.000000E+00   0.000000E+00   0.000000E+00   0.000000E+00   0.000000E+00   0.000000E+00   0.000000E+00   0.000000E+00   0.000000E+00   0.000000E+00   0.000000E+00   0.000000E+00   0.000000E+00   0.000000E+00   0.000000E+00   0.000000E+00   0.000000E+00   0.000000E+00   0.000000E+00   0.000000E+00   0.000000E+00   0.000000E+00   0.000000E+00   0.000000E+00   0.000000E+00   0.000000E+00   0.000000E+00   0.000000E+00   0.000000E+00   0.000000E+00   2.000000E+00   5.000000E+00   5.000000E+00   5.000000E+00   1.000000E+01   1.000000E+01   1.000000E+01   5.000000E+00   0.000000E+00   0.000000E+00   0.000000E+00   0.000000E+00   0.000000E+00   0.000000E+00   0.000000E+00   0.000000E+00   0.000000E+00   0.000000E+00   0.000000E+00   0.000000E+00   0.000000E+00
   0.000000E+00   0.000000E+00   0.000000E+00   0.000000E+00   0.000000E+00   0.000000E+00   0.000000E+00   0.000000E+00   0.000000E+00   0.000000E+00   0.000000E+00   0.000000E+00   0.000000E+00   0.000000E+00   0.000000E+00   0.000000E+00   0.000000E+00   0.000000E+00   0.000000E+00   0.000000E+00   0.000000E+00   0.000000E+00   0.000000E+00   0.000000E+00   0.000000E+00   0.000000E+00   0.000000E+00   0.000000E+00   0.000000E+00   0.000000E+00   0.000000E+00   0.000000E+00   0.000000E+00   0.000000E+00   0.000000E+00   0.000000E+00   0.000000E+00   0.000000E+00   0.000000E+00   0.000000E+00   0.000000E+00   0.000000E+00   0.000000E+00   0.000000E+00   0.000000E+00   0.000000E+00   0.000000E+00   0.000000E+00   0.000000E+00   0.000000E+00   0.000000E+00   0.000000E+00   0.000000E+00   0.000000E+00   0.000000E+00   0.000000E+00   0.000000E+00   0.000000E+00   0.000000E+00   0.000000E+00   4.000000E+00   5.000000E+00   5.000000E+00   5.000000E+00   1.000000E+01   1.000000E+01   1.000000E+01   5.000000E+00   5.000000E+00   5.000000E+00   5.000000E+00   0.000000E+00   0.000000E+00   0.000000E+00   0.000000E+00   0.000000E+00   0.000000E+00   0.000000E+00   0.000000E+00   0.000000E+00   0.000000E+00
   0.000000E+00   0.000000E+00   0.000000E+00   0.000000E+00   0.000000E+00   0.000000E+00   0.000000E+00   0.000000E+00   0.000000E+00   0.000000E+00   0.000000E+00   0.000000E+00   0.000000E+00   0.000000E+00   0.000000E+00   0.000000E+00   0.000000E+00   0.000000E+00   0.000000E+00   0.000000E+00   0.000000E+00   0.000000E+00   0.000000E+00   0.000000E+00   0.000000E+00   0.000000E+00   0.000000E+00   0.000000E+00   0.000000E+00   0.000000E+00   0.000000E+00   0.000000E+00   0.000000E+00   0.000000E+00   0.000000E+00   0.000000E+00   0.000000E+00   0.000000E+00   0.000000E+00   0.000000E+00   0.000000E+00   0.000000E+00   0.000000E+00   0.000000E+00   0.000000E+00   0.000000E+00   0.000000E+00   0.000000E+00   4.000000E+00   4.000000E+00   0.000000E+00   0.000000E+00   0.000000E+00   0.000000E+00   0.000000E+00   0.000000E+00   0.000000E+00   0.000000E+00   5.000000E+00   5.000000E+00   5.000000E+00   5.000000E+00   5.000000E+00   5.000000E+00   1.000000E+01   1.000000E+01   1.000000E+01   5.000000E+00   5.000000E+00   5.000000E+00   5.000000E+00   5.000000E+00   5.000000E+00   5.000000E+00   5.000000E+00   0.000000E+00   0.000000E+00   0.000000E+00   0.000000E+00   0.000000E+00   0.000000E+00
   0.000000E+00   0.000000E+00   0.000000E+00   0.000000E+00   0.000000E+00   0.000000E+00   0.000000E+00   0.000000E+00   0.000000E+00   0.000000E+00   0.000000E+00   0.000000E+00   0.000000E+00   0.000000E+00   0.000000E+00   0.000000E+00   0.000000E+00   0.000000E+00   0.000000E+00   0.000000E+00   0.000000E+00   0.000000E+00   0.000000E+00   0.000000E+00   0.000000E+00   0.000000E+00   0.000000E+00   0.000000E+00   0.000000E+00   0.000000E+00   0.000000E+00   0.000000E+00   0.000000E+00   0.000000E+00   0.000000E+00   0.000000E+00   0.000000E+00   0.000000E+00   0.000000E+00   0.000000E+00   0.000000E+00   0.000000E+00   0.000000E+00   0.000000E+00   0.000000E+00   0.000000E+00   0.000000E+00   4.000000E+00   4.000000E+00   4.000000E+00   4.000000E+00   4.000000E+00   4.000000E+00   0.000000E+00   0.000000E+00   0.000000E+00   4.000000E+00   5.000000E+00   5.000000E+00   5.000000E+00   5.000000E+00   5.000000E+00   5.000000E+00   5.000000E+00   1.000000E+01   1.000000E+01   1.000000E+01   5.000000E+00   5.000000E+00   5.000000E+00   5.000000E+00   5.000000E+00   5.000000E+00   5.000000E+00   5.000000E+00   5.000000E+00   0.000000E+00   0.000000E+00   0.000000E+00   0.000000E+00   0.000000E+00
   0.000000E+00   0.000000E+00   0.000000E+00   0.000000E+00   0.000000E+00   0.000000E+00   0.000000E+00   0.000000E+00   0.000000E+00   0.000000E+00   0.000000E+00   0.000000E+00   0.000000E+00   0.000000E+00   0.000000E+00   0.000000E+00   0.000000E+00   0.000000E+00   0.000000E+00   0.000000E+00   0.000000E+00   0.000000E+00   0.000000E+00   0.000000E+00   0.000000E+00   0.000000E+00   0.000000E+00   0.000000E+00   0.000000E+00   0.000000E+00   0.000000E+00   0.000000E+00   0.000000E+00   0.000000E+00   0.000000E+00   0.000000E+00   0.000000E+00   0.000000E+00   0.000000E+00   0.000000E+00   0.000000E+00   0.000000E+00   0.000000E+00   0.000000E+00   0.000000E+00   0.000000E+00   4.000000E+00   4.000000E+00   4.000000E+00   4.000000E+00   4.000000E+00   4.000000E+00   4.000000E+00   4.000000E+00   4.000000E+00   4.000000E+00   4.000000E+00   5.000000E+00   5.000000E+00   5.000000E+00   5.000000E+00   5.000000E+00   5.000000E+00   5.000000E+00   1.000000E+01   1.000000E+01   1.000000E+01   5.000000E+00   5.000000E+00   5.000000E+00   5.000000E+00   5.000000E+00   5.000000E+00   5.000000E+00   5.000000E+00   5.000000E+00   0.000000E+00   0.000000E+00   0.000000E+00   0.000000E+00   0.000000E+00
   0.000000E+00   0.000000E+00   0.000000E+00   0.000000E+00   0.000000E+00   0.000000E+00   0.000000E+00   0.000000E+00   0.000000E+00   0.000000E+00   0.000000E+00   0.000000E+00   0.000000E+00   0.000000E+00   0.000000E+00   0.000000E+00   0.000000E+00   0.000000E+00   0.000000E+00   0.000000E+00   0.000000E+00   0.000000E+00   0.000000E+00   0.000000E+00   0.000000E+00   0.000000E+00   0.000000E+00   0.000000E+00   0.000000E+00   0.000000E+00   0.000000E+00   0.000000E+00   0.000000E+00   0.000000E+00   0.000000E+00   0.000000E+00   0.000000E+00   0.000000E+00   0.000000E+00   0.000000E+00   0.000000E+00   0.000000E+00   0.000000E+00   0.000000E+00   0.000000E+00   0.000000E+00   4.000000E+00   4.000000E+00   4.000000E+00   5.000000E+00   5.000000E+00   5.000000E+00   5.000000E+00   5.000000E+00   5.000000E+00   5.000000E+00   5.000000E+00   5.000000E+00   5.000000E+00   5.000000E+00   5.000000E+00   5.000000E+00   5.000000E+00   5.000000E+00   1.000000E+01   1.000000E+01   1.000000E+01   5.000000E+00   5.000000E+00   5.000000E+00   5.000000E+00   5.000000E+00   5.000000E+00   5.000000E+00   5.000000E+00   5.000000E+00   5.000000E+00   0.000000E+00   0.000000E+00   0.000000E+00   0.000000E+00
   0.000000E+00   0.000000E+00   0.000000E+00   0.000000E+00   0.000000E+00   0.000000E+00   0.000000E+00   0.000000E+00   0.000000E+00   0.000000E+00   0.000000E+00   0.000000E+00   0.000000E+00   0.000000E+00   0.000000E+00   0.000000E+00   0.000000E+00   0.000000E+00   0.000000E+00   0.000000E+00   0.000000E+00   0.000000E+00   0.000000E+00   0.000000E+00   0.000000E+00   0.000000E+00   0.000000E+00   0.000000E+00   0.000000E+00   0.000000E+00   0.000000E+00   0.000000E+00   0.000000E+00   0.000000E+00   0.000000E+00   0.000000E+00   0.000000E+00   0.000000E+00   0.000000E+00   0.000000E+00   0.000000E+00   0.000000E+00   0.000000E+00   0.000000E+00   4.000000E+00   4.000000E+00   4.000000E+00   4.000000E+00   4.000000E+00   5.000000E+00   5.000000E+00   5.000000E+00   5.000000E+00   5.000000E+00   5.000000E+00   5.000000E+00   5.000000E+00   5.000000E+00   5.000000E+00   5.000000E+00   5.000000E+00   5.000000E+00   5.000000E+00   5.000000E+00   1.000000E+01   1.000000E+01   1.000000E+01   5.000000E+00   5.000000E+00   5.000000E+00   5.000000E+00   5.000000E+00   5.000000E+00   5.000000E+00   5.000000E+00   5.000000E+00   5.000000E+00   5.000000E+00   0.000000E+00   0.000000E+00   0.000000E+00
   0.000000E+00   0.000000E+00   0.000000E+00   0.000000E+00   0.000000E+00   0.000000E+00   0.000000E+00   0.000000E+00   0.000000E+00   0.000000E+00   0.000000E+00   0.000000E+00   0.000000E+00   0.000000E+00   0.000000E+00   0.000000E+00   0.000000E+00   0.000000E+00   0.000000E+00   0.000000E+00   0.000000E+00   0.000000E+00   0.000000E+00   0.000000E+00   0.000000E+00   0.000000E+00   0.000000E+00   0.000000E+00   0.000000E+00   0.000000E+00   0.000000E+00   0.000000E+00   0.000000E+00   0.000000E+00   0.000000E+00   0.000000E+00   0.000000E+00   0.000000E+00   0.000000E+00   0.000000E+00   0.000000E+00   4.000000E+00   4.000000E+00   4.000000E+00   4.000000E+00   4.000000E+00   4.000000E+00   4.000000E+00   4.000000E+00   5.000000E+00   5.000000E+00   5.000000E+00   5.000000E+00   5.000000E+00   5.000000E+00   5.000000E+00   5.000000E+00   5.000000E+00   5.000000E+00   5.000000E+00   5.000000E+00   5.000000E+00   5.000000E+00   5.000000E+00   1.000000E+01   1.000000E+01   1.000000E+01   5.000000E+00   5.000000E+00   5.000000E+00   5.000000E+00   5.000000E+00   5.000000E+00   5.000000E+00   5.000000E+00   5.000000E+00   5.000000E+00   5.000000E+00   5.000000E+00   0.000000E+00   0.000000E+00
   0.000000E+00   0.000000E+00   0.000000E+00   0.000000E+00   0.000000E+00   0.000000E+00   0.000000E+00   0.000000E+00   0.000000E+00   0.000000E+00   0.000000E+00   0.000000E+00   0.000000E+00   0.000000E+00   0.000000E+00   0.000000E+00   0.000000E+00   0.000000E+00   0.000000E+00   0.000000E+00   0.000000E+00   0.000000E+00   0.000000E+00   0.000000E+00   0.000000E+00   0.000000E+00   0.000000E+00   0.000000E+00   0.000000E+00   0.000000E+00   0.000000E+00   0.000000E+00   0.000000E+00   0.000000E+00   0.000000E+00   0.000000E+00   0.000000E+00   0.000000E+00   0.000000E+00   0.000000E+00   2.000000E+00   2.000000E+00   4.000000E+00   4.000000E+00   4.000000E+00   4.000000E+00   4.000000E+00   4.000000E+00   4.000000E+00   4.000000E+00   4.000000E+00   5.000000E+00   5.000000E+00   5.000000E+00   5.000000E+00   5.000000E+00   5.000000E+00   5.000000E+00   5.000000E+00   5.000000E+00   5.000000E+00   5.000000E+00   5.000000E+00   5.000000E+00   1.000000E+01   1.000000E+01   1.000000E+01   1.000000E+01   5.000000E+00   5.000000E+00   5.000000E+00   5.000000E+00   5.000000E+00   5.000000E+00   5.000000E+00   5.000000E+00   5.000000E+00   5.000000E+00   5.000000E+00   5.000000E+00   0.000000E+00
   0.000000E+00   0.000000E+00   0.000000E+00   0.000000E+00   0.000000E+00   0.000000E+00   0.000000E+00   0.000000E+00   0.000000E+00   0.000000E+00   0.000000E+00   0.000000E+00   0.000000E+00   0.000000E+00   0.000000E+00   0.000000E+00   0.000000E+00   0.000000E+00   0.000000E+00   0.000000E+00   0.000000E+00   0.000000E+00   0.000000E+00   0.000000E+00   0.000000E+00   0.000000E+00   0.000000E+00   0.000000E+00   0.000000E+00   0.000000E+00   0.000000E+00   0.000000E+00   0.000000E+00   0.000000E+00   0.000000E+00   0.000000E+00   0.000000E+00   0.000000E+00   0.000000E+00   2.000000E+00   2.000000E+00   2.000000E+00   4.000000E+00   4.000000E+00   4.000000E+00   4.000000E+00   4.000000E+00   4.000000E+00   4.000000E+00   4.000000E+00   4.000000E+00   4.000000E+00   5.000000E+00   5.000000E+00   5.000000E+00   5.000000E+00   5.000000E+00   5.000000E+00   5.000000E+00   5.000000E+00   5.000000E+00   5.000000E+00   5.000000E+00   5.000000E+00   1.000000E+01   1.000000E+01   1.000000E+01   1.000000E+01   1.000000E+01   5.000000E+00   5.000000E+00   5.000000E+00   5.000000E+00   5.000000E+00   5.000000E+00   5.000000E+00   5.000000E+00   5.000000E+00   5.000000E+00   5.000000E+00   0.000000E+00
   0.000000E+00   0.000000E+00   0.000000E+00   0.000000E+00   0.000000E+00   0.000000E+00   0.000000E+00   0.000000E+00   0.000000E+00   0.000000E+00   0.000000E+00   0.000000E+00   0.000000E+00   0.000000E+00   0.000000E+00   0.000000E+00   0.000000E+00   0.000000E+00   0.000000E+00   0.000000E+00   0.000000E+00   0.000000E+00   0.000000E+00   0.000000E+00   0.000000E+00   0.000000E+00   0.000000E+00   0.000000E+00   0.000000E+00   0.000000E+00   0.000000E+00   0.000000E+00   0.000000E+00   0.000000E+00   0.000000E+00   0.000000E+00   0.000000E+00   0.000000E+00   0.000000E+00   2.000000E+00   2.000000E+00   2.000000E+00   2.000000E+00   4.000000E+00   4.000000E+00   4.000000E+00   4.000000E+00   4.000000E+00   4.000000E+00   4.000000E+00   4.000000E+00   4.000000E+00   5.000000E+00   5.000000E+00   5.000000E+00   5.000000E+00   5.000000E+00   5.000000E+00   5.000000E+00   5.000000E+00   5.000000E+00   5.000000E+00   5.000000E+00   5.000000E+00   1.000000E+01   1.000000E+01   1.000000E+01   1.000000E+01   1.000000E+01   1.000000E+01   1.000000E+01   1.000000E+01   1.000000E+01   1.000000E+01   1.000000E+01   1.000000E+01   5.000000E+00   5.000000E+00   5.000000E+00   5.000000E+00   0.000000E+00
   0.000000E+00   0.000000E+00   0.000000E+00   0.000000E+00   0.000000E+00   0.000000E+00   0.000000E+00   0.000000E+00   0.000000E+00   0.000000E+00   0.000000E+00   0.000000E+00   0.000000E+00   0.000000E+00   0.000000E+00   0.000000E+00   0.000000E+00   0.000000E+00   0.000000E+00   0.000000E+00   0.000000E+00   0.000000E+00   0.000000E+00   0.000000E+00   0.000000E+00   0.000000E+00   0.000000E+00   0.000000E+00   0.000000E+00   0.000000E+00   0.000000E+00   0.000000E+00   0.000000E+00   0.000000E+00   0.000000E+00   0.000000E+00   0.000000E+00   0.000000E+00   0.000000E+00   2.000000E+00   2.000000E+00   2.000000E+00   2.000000E+00   4.000000E+00   4.000000E+00   4.000000E+00   4.000000E+00   4.000000E+00   4.000000E+00   4.000000E+00   4.000000E+00   4.000000E+00   5.000000E+00   5.000000E+00   5.000000E+00   5.000000E+00   5.000000E+00   5.000000E+00   5.000000E+00   5.000000E+00   5.000000E+00   5.000000E+00   5.000000E+00   5.000000E+00   1.000000E+01   1.000000E+01   1.000000E+01   1.000000E+01   1.000000E+01   1.000000E+01   1.000000E+01   1.000000E+01   1.000000E+01   1.000000E+01   1.000000E+01   1.000000E+01   1.000000E+01   5.000000E+00   5.000000E+00   5.000000E+00   0.000000E+00
   0.000000E+00   0.000000E+00   0.000000E+00   0.000000E+00   0.000000E+00   0.000000E+00   0.000000E+00   0.000000E+00   0.000000E+00   0.000000E+00   0.000000E+00   0.000000E+00   0.000000E+00   0.000000E+00   0.000000E+00   0.000000E+00   0.000000E+00   0.000000E+00   0.000000E+00   0.000000E+00   0.000000E+00   0.000000E+00   0.000000E+00   0.000000E+00   0.000000E+00   0.000000E+00   0.000000E+00   0.000000E+00   0.000000E+00   0.000000E+00   0.000000E+00   0.000000E+00   0.000000E+00   0.000000E+00   2.000000E+00   2.000000E+00   2.000000E+00   2.000000E+00   2.000000E+00   2.000000E+00   2.000000E+00   2.000000E+00   4.000000E+00   4.000000E+00   4.000000E+00   4.000000E+00   4.000000E+00   4.000000E+00   4.000000E+00   4.000000E+00   4.000000E+00   4.000000E+00   5.000000E+00   5.000000E+00   5.000000E+00   5.000000E+00   5.000000E+00   5.000000E+00   5.000000E+00   5.000000E+00   5.000000E+00   5.000000E+00   5.000000E+00   5.000000E+00   1.000000E+01   1.000000E+01   1.000000E+01   1.000000E+01   1.000000E+01   1.000000E+01   1.000000E+01   1.000000E+01   1.000000E+01   1.000000E+01   1.000000E+01   1.000000E+01   1.000000E+01   5.000000E+00   5.000000E+00   5.000000E+00   3.000000E+00
   0.000000E+00   0.000000E+00   0.000000E+00   0.000000E+00   0.000000E+00   0.000000E+00   0.000000E+00   0.000000E+00   0.000000E+00   0.000000E+00   0.000000E+00   0.000000E+00   0.000000E+00   0.000000E+00   0.000000E+00   0.000000E+00   0.000000E+00   0.000000E+00   0.000000E+00   0.000000E+00   0.000000E+00   0.000000E+00   0.000000E+00   0.000000E+00   0.000000E+00   0.000000E+00   0.000000E+00   0.000000E+00   0.000000E+00   0.000000E+00   0.000000E+00   0.000000E+00   2.000000E+00   2.000000E+00   2.000000E+00   2.000000E+00   2.000000E+00   2.000000E+00   2.000000E+00   2.000000E+00   2.000000E+00   4.000000E+00   4.000000E+00   4.000000E+00   4.000000E+00   4.000000E+00   4.000000E+00   4.000000E+00   4.000000E+00   4.000000E+00   4.000000E+00   4.000000E+00   5.000000E+00   5.000000E+00   5.000000E+00   5.000000E+00   5.000000E+00   5.000000E+00   5.000000E+00   5.000000E+00   5.000000E+00   5.000000E+00   5.000000E+00   5.000000E+00   1.000000E+01   1.000000E+01   1.000000E+01   1.000000E+01   1.000000E+01   1.000000E+01   1.000000E+01   1.000000E+01   1.000000E+01   1.000000E+01   1.000000E+01   1.000000E+01   1.000000E+01   5.000000E+00   5.000000E+00   5.000000E+00   3.000000E+00
   0.000000E+00   0.000000E+00   0.000000E+00   0.000000E+00   0.000000E+00   0.000000E+00   0.000000E+00   0.000000E+00   0.000000E+00   0.000000E+00   0.000000E+00   0.000000E+00   0.000000E+00   0.000000E+00   0.000000E+00   0.000000E+00   0.000000E+00   0.000000E+00   0.000000E+00   0.000000E+00   0.000000E+00   0.000000E+00   0.000000E+00   0.000000E+00   0.000000E+00   0.000000E+00   0.000000E+00   0.000000E+00   0.000000E+00   2.000000E+00   2.000000E+00   2.000000E+00   2.000000E+00   2.000000E+00   2.000000E+00   2.000000E+00   2.000000E+00   2.000000E+00   2.000000E+00   4.000000E+00   4.000000E+00   4.000000E+00   4.000000E+00   4.000000E+00   4.000000E+00   4.000000E+00   4.000000E+00   4.000000E+00   4.000000E+00   4.000000E+00   4.000000E+00   4.000000E+00   5.000000E+00   5.000000E+00   1.000000E+01   5.000000E+00   5.000000E+00   5.000000E+00   5.000000E+00   5.000000E+00   5.000000E+00   5.000000E+00   5.000000E+00   5.000000E+00   5.000000E+00   1.000000E+01   1.000000E+01   1.000000E+01   1.000000E+01   1.000000E+01   1.000000E+01   1.000000E+01   1.000000E+01   1.000000E+01   1.000000E+01   1.000000E+01   1.000000E+01   5.000000E+00   5.000000E+00   5.000000E+00   3.000000E+00
   0.000000E+00   0.000000E+00   0.000000E+00   0.000000E+00   0.000000E+00   0.000000E+00   0.000000E+00   0.000000E+00   0.000000E+00   0.000000E+00   0.000000E+00   0.000000E+00   0.000000E+00   0.000000E+00   0.000000E+00   0.000000E+00   0.000000E+00   0.000000E+00   0.000000E+00   0.000000E+00   0.000000E+00   0.000000E+00   0.000000E+00   0.000000E+00   0.000000E+00   0.000000E+00   2.000000E+00   2.000000E+00   2.000000E+00   2.000000E+00   2.000000E+00   2.000000E+00   2.000000E+00   2.000000E+00   2.000000E+00   2.000000E+00   2.000000E+00   2.000000E+00   4.000000E+00   4.000000E+00   4.000000E+00   4.000000E+00   4.000000E+00   4.000000E+00   4.000000E+00   4.000000E+00   4.000000E+00   4.000000E+00   4.000000E+00   4.000000E+00   4.000000E+00   5.000000E+00   5.000000E+00   5.000000E+00   1.000000E+01   5.000000E+00   5.000000E+00   5.000000E+00   5.000000E+00   5.000000E+00   5.000000E+00   5.000000E+00   5.000000E+00   5.000000E+00   5.000000E+00   5.000000E+00   1.000000E+01   1.000000E+01   1.000000E+01   1.000000E+01   1.000000E+01   1.000000E+01   1.000000E+01   1.000000E+01   1.000000E+01   1.000000E+01   1.000000E+01   5.000000E+00   5.000000E+00   5.000000E+00   3.000000E+00
   0.000000E+00   0.000000E+00   0.000000E+00   0.000000E+00   0.000000E+00   0.000000E+00   0.000000E+00   0.000000E+00   0.000000E+00   0.000000E+00   0.000000E+00   0.000000E+00   0.000000E+00   0.000000E+00   0.000000E+00   0.000000E+00   0.000000E+00   0.000000E+00   0.000000E+00   0.000000E+00   0.000000E+00   0.000000E+00   0.000000E+00   0.000000E+00   2.000000E+00   2.000000E+00   2.000000E+00   2.000000E+00   2.000000E+00   2.000000E+00   2.000000E+00   2.000000E+00   2.000000E+00   2.000000E+00   2.000000E+00   4.000000E+00   4.000000E+00   4.000000E+00   4.000000E+00   4.000000E+00   4.000000E+00   4.000000E+00   4.000000E+00   4.000000E+00   4.000000E+00   4.000000E+00   4.000000E+00   4.000000E+00   5.000000E+00   5.000000E+00   5.000000E+00   5.000000E+00   5.000000E+00   5.000000E+00   1.000000E+01   5.000000E+00   5.000000E+00   5.000000E+00   5.000000E+00   5.000000E+00   5.000000E+00   5.000000E+00   5.000000E+00   5.000000E+00   5.000000E+00   5.000000E+00   5.000000E+00   5.000000E+00   1.000000E+01   1.000000E+01   1.000000E+01   1.000000E+01   1.000000E+01   1.000000E+01   1.000000E+01   1.000000E+01   1.000000E+01   5.000000E+00   5.000000E+00   5.000000E+00   3.000000E+00
   0.000000E+00   0.000000E+00   0.000000E+00   0.000000E+00   0.000000E+00   0.000000E+00   0.000000E+00   0.000000E+00   0.000000E+00   0.000000E+00   0.000000E+00   0.000000E+00   0.000000E+00   0.000000E+00   0.000000E+00   0.000000E+00   0.000000E+00   0.000000E+00   0.000000E+00   0.000000E+00   0.000000E+00   0.000000E+00   2.000000E+00   2.000000E+00   2.000000E+00   2.000000E+00   2.000000E+00   2.000000E+00   2.000000E+00   4.000000E+00   4.000000E+00   4.000000E+00   4.000000E+00   4.000000E+00   4.000000E+00   4.000000E+00   4.000000E+00   4.000000E+00   4.000000E+00   4.000000E+00   4.000000E+00   4.000000E+00   4.000000E+00   4.000000E+00   5.000000E+00   5.000000E+00   5.000000E+00   5.000000E+00   5.000000E+00   5.000000E+00   5.000000E+00   5.000000E+00   5.000000E+00   5.000000E+00   1.000000E+01   5.000000E+00   5.000000E+00   5.000000E+00   5.000000E+00   5.000000E+00   5.000000E+00   5.000000E+00   5.000000E+00   5.000000E+00   5.000000E+00   5.000000E+00   5.000000E+00   5.000000E+00   5.000000E+00   1.000000E+01   1.000000E+01   1.000000E+01   1.000000E+01   1.000000E+01   1.000000E+01   1.000000E+01   5.000000E+00   5.000000E+00   5.000000E+00   5.000000E+00   3.000000E+00