# Output control package file for MODFLOW, generated by Flopy.
HEAD PRINT FORMAT   4
HEAD SAVE FORMAT (81F8.0)             LABEL
HEAD SAVE UNIT    58
DRAWDOWN PRINT FORMAT   0

period 1 step 1 
print budget
print head
save head

period 2 step 28 
print budget

period 2 step 1826 
print budget

period 2 step 3652 
print budget

period 2 step 5478 
print budget

period 2 step 5844 
print budget
print head
save head

