BEGIN OPTIONS
  TIME_UNITS days
END OPTIONS

BEGIN DIMENSIONS
  NPER 5
END DIMENSIONS

BEGIN PERIODDATA
 #perlen nstp  tsmult
    20.0    10    1.0
    20.0    10    1.0
    20.0    10    1.0
    500.0    10    1.0
    2000.0    50    1.0
END PERIODDATA
