# IC8 input file, prepared by mf5to15 on 4/10/2015 at 9:04:54.

BEGIN Options
END Options

BEGIN GRIDDATA
  STRT LAYERED
CONSTANT -25.00000000
CONSTANT -25.00000000
CONSTANT -25.00000000
END GRIDDATA
