# SMS8 input file, prepared by mf5to15 on 4/10/2015 at 9:04:54.

BEGIN Options
  PRINT_OPTION SUMMARY
  COMPLEXITY  MODERATE
END Options

BEGIN Nonlinear
  OUTER_HCLOSE   1.E-06
  OUTER_MAXIMUM  100
  UNDER_RELAXATION  dbd
END Nonlinear

BEGIN LINEAR
  INNER_MAXIMUM  50
  INNER_HCLOSE   1.E-09
  INNER_RCLOSE   1.E-05
  LINEAR_ACCELERATION  BICGSTAB
END LINEAR

BEGIN XMD
  INNER_MAXIMUM  30
  INNER_HCLOSE   0.10000000E-05
  LINEAR_ACCELERATION  CG
  PRECONDITIONER_LEVELS  7
  PRECONDITIONER_DROP_TOLERANCE   0.10000000E-02
  NUMBER_ORTHOGONALIZATIONS  2
END XMD
