BEGIN OPTIONS
END OPTIONS

BEGIN CONTINUOUS FILEOUT  test001e_UZF_3lay_obs.out
ID3_DPTH=8.0 WATER-CONTENT 10 3.0
ID3_DPTH=24.0 WATER-CONTENT 18 4.0
ID3_RCH uzf-gwrch 18
END CONTINUOUS
