# MODFLOW-USGs Constant-Head Boundary Package (CHD)
        10   AUX C01
 10
 21   1.0   1.0        35.0
 42   1.0   1.0        35.0
 63   1.0   1.0        35.0
 84   1.0   1.0        35.0
 105  1.0   1.0        35.0
 126  1.0   1.0        35.0
 147  1.0   1.0        35.0
 168  1.0   1.0        35.0
 189  1.0   1.0        35.0
 210  1.0   1.0        35.0



 21   1.003868461   1.003868461        35.0
 42   1.005867021   1.005867021        35.0
 63   1.009248400   1.009248400        35.0
 84   1.013280029   1.013280029        35.0
 105  1.017254407   1.017254407        35.0
 126  1.020607807   1.020607807        35.0
 147  1.022943636   1.022943636        35.0
 168  1.023688507   1.023688507        35.0
 189  1.024073821   1.024073821        35.0
 210  1.024270164   1.024270164        35.0


 21    1.003916  1.003916 5.480000e+000
 42    1.005955  1.005955 8.340000e+000
 63    1.009403  1.009403 1.320000e+001
 84    1.013493  1.013493 1.890000e+001
 105   1.017504  1.017504 2.450000e+001
 126   1.020956  1.020956 2.930000e+001
 147   1.023892  1.023892 3.340000e+001
 168   1.024215  1.024215 3.390000e+001
 189   1.024439  1.024439 3.420000e+001
 210   1.024572  1.024572 3.440000e+001




