# MODFLOW-USGs Prescribed Concentration (PCB) Package
 10 0
 10   0
 21  1  0.000000e+000
 42  1  0.000000e+000
 63  1  0.000000e+001
 84  1  0.000000e+001
 105  1  0.000000e+001
 126  1  2.930000e+001
 147  1  3.340000e+001
 168  1  3.390000e+001
 189  1  3.420000e+001
 210  1  3.440000e+001




 21  1    35.
 42  1    35.
 63  1    35.
 84  1    35.
 105  1   35.
 126  1   35.
 147  1   35.
 168  1   35.
 189  1   35.
 210  1   35.




 21  1  5.480000e+000
 42  1  8.340000e+000
 63  1  1.320000e+001
 84  1  1.890000e+001
 105  1  2.450000e+001
 126  1  2.930000e+001
 147  1  3.340000e+001
 168  1  3.390000e+001
 189  1  3.420000e+001
 210  1  3.440000e+001
