# MODFLOW-USGs Density flow Package
   1000.00   1025.00     35.00        01

