# MODFLOW-USG Layer Property Flow (LPF) Package
 53 -1.000000e+030 0 0
 0 0 0 0 0 0 0 0 0 0
 0 0 0 0 0 0 0 0 0 0
 1.000000e+000
 1.000000e+000
 1.000000e+000
 1.000000e+000
 1.000000e+000
 1.000000e+000
 1.000000e+000
 1.000000e+000
 1.000000e+000
 1.000000e+000
 0 0 0 0 0 0 0 0 0 0
 0 0 0 0 0 0 0 0 0 0
INTERNAL  1.000000e+000  (FREE)  -1  Kx Layer 1
 8.640000e+002 8.640000e+002 8.640000e+002 8.640000e+002 8.640000e+002 8.640000e+002 8.640000e+002 8.640000e+002 8.640000e+002 8.640000e+002
 8.640000e+002 8.640000e+002 8.640000e+002 8.640000e+002 8.640000e+002 8.640000e+002 8.640000e+002 8.640000e+002 8.640000e+002 8.640000e+002
 8.640000e+002
INTERNAL  1.000000e+000  (FREE)  -1  Kz Layer 1
 8.640000e+002 8.640000e+002 8.640000e+002 8.640000e+002 8.640000e+002 8.640000e+002 8.640000e+002 8.640000e+002 8.640000e+002 8.640000e+002
 8.640000e+002 8.640000e+002 8.640000e+002 8.640000e+002 8.640000e+002 8.640000e+002 8.640000e+002 8.640000e+002 8.640000e+002 8.640000e+002
 8.640000e+002
INTERNAL  1.000000e+000  (FREE)  -1  Ss Layer 1
 0.000000e-000 0.000000e-000 0.000000e-000 0.000000e-000 0.000000e-000 0.000000e-000 0.000000e-000 0.000000e-000 0.000000e-000 0.000000e-000
 0.000000e-000 0.000000e-000 0.000000e-000 0.000000e-000 0.000000e-000 0.000000e-000 0.000000e-000 0.000000e-000 0.000000e-000 0.000000e-000
 0.000000e-000
INTERNAL  1.000000e+000  (FREE)  -1  Kx Layer 2
 8.640000e+002 8.640000e+002 8.640000e+002 8.640000e+002 8.640000e+002 8.640000e+002 8.640000e+002 8.640000e+002 8.640000e+002 8.640000e+002
 8.640000e+002 8.640000e+002 8.640000e+002 8.640000e+002 8.640000e+002 8.640000e+002 8.640000e+002 8.640000e+002 8.640000e+002 8.640000e+002
 8.640000e+002
INTERNAL  1.000000e+000  (FREE)  -1  Kz Layer 2
 8.640000e+002 8.640000e+002 8.640000e+002 8.640000e+002 8.640000e+002 8.640000e+002 8.640000e+002 8.640000e+002 8.640000e+002 8.640000e+002
 8.640000e+002 8.640000e+002 8.640000e+002 8.640000e+002 8.640000e+002 8.640000e+002 8.640000e+002 8.640000e+002 8.640000e+002 8.640000e+002
 8.640000e+002
INTERNAL  1.000000e+000  (FREE)  -1  Ss Layer 2
 0.000000e-000 0.000000e-000 0.000000e-000 0.000000e-000 0.000000e-000 0.000000e-000 0.000000e-000 0.000000e-000 0.000000e-000 0.000000e-000
 0.000000e-000 0.000000e-000 0.000000e-000 0.000000e-000 0.000000e-000 0.000000e-000 0.000000e-000 0.000000e-000 0.000000e-000 0.000000e-000
 0.000000e-000
INTERNAL  1.000000e+000  (FREE)  -1  Kx Layer 3
 8.640000e+002 8.640000e+002 8.640000e+002 8.640000e+002 8.640000e+002 8.640000e+002 8.640000e+002 8.640000e+002 8.640000e+002 8.640000e+002
 8.640000e+002 8.640000e+002 8.640000e+002 8.640000e+002 8.640000e+002 8.640000e+002 8.640000e+002 8.640000e+002 8.640000e+002 8.640000e+002
 8.640000e+002
INTERNAL  1.000000e+000  (FREE)  -1  Kz Layer 3
 8.640000e+002 8.640000e+002 8.640000e+002 8.640000e+002 8.640000e+002 8.640000e+002 8.640000e+002 8.640000e+002 8.640000e+002 8.640000e+002
 8.640000e+002 8.640000e+002 8.640000e+002 8.640000e+002 8.640000e+002 8.640000e+002 8.640000e+002 8.640000e+002 8.640000e+002 8.640000e+002
 8.640000e+002
INTERNAL  1.000000e+000  (FREE)  -1  Ss Layer 3
 0.000000e-000 0.000000e-000 0.000000e-000 0.000000e-000 0.000000e-000 0.000000e-000 0.000000e-000 0.000000e-000 0.000000e-000 0.000000e-000
 0.000000e-000 0.000000e-000 0.000000e-000 0.000000e-000 0.000000e-000 0.000000e-000 0.000000e-000 0.000000e-000 0.000000e-000 0.000000e-000
 0.000000e-000
INTERNAL  1.000000e+000  (FREE)  -1  Kx Layer 4
 8.640000e+002 8.640000e+002 8.640000e+002 8.640000e+002 8.640000e+002 8.640000e+002 8.640000e+002 8.640000e+002 8.640000e+002 8.640000e+002
 8.640000e+002 8.640000e+002 8.640000e+002 8.640000e+002 8.640000e+002 8.640000e+002 8.640000e+002 8.640000e+002 8.640000e+002 8.640000e+002
 8.640000e+002
INTERNAL  1.000000e+000  (FREE)  -1  Kz Layer 4
 8.640000e+002 8.640000e+002 8.640000e+002 8.640000e+002 8.640000e+002 8.640000e+002 8.640000e+002 8.640000e+002 8.640000e+002 8.640000e+002
 8.640000e+002 8.640000e+002 8.640000e+002 8.640000e+002 8.640000e+002 8.640000e+002 8.640000e+002 8.640000e+002 8.640000e+002 8.640000e+002
 8.640000e+002
INTERNAL  1.000000e+000  (FREE)  -1  Ss Layer 4
 0.000000e-000 0.000000e-000 0.000000e-000 0.000000e-000 0.000000e-000 0.000000e-000 0.000000e-000 0.000000e-000 0.000000e-000 0.000000e-000
 0.000000e-000 0.000000e-000 0.000000e-000 0.000000e-000 0.000000e-000 0.000000e-000 0.000000e-000 0.000000e-000 0.000000e-000 0.000000e-000
 0.000000e-000
INTERNAL  1.000000e+000  (FREE)  -1  Kx Layer 5
 8.640000e+002 8.640000e+002 8.640000e+002 8.640000e+002 8.640000e+002 8.640000e+002 8.640000e+002 8.640000e+002 8.640000e+002 8.640000e+002
 8.640000e+002 8.640000e+002 8.640000e+002 8.640000e+002 8.640000e+002 8.640000e+002 8.640000e+002 8.640000e+002 8.640000e+002 8.640000e+002
 8.640000e+002
INTERNAL  1.000000e+000  (FREE)  -1  Kz Layer 5
 8.640000e+002 8.640000e+002 8.640000e+002 8.640000e+002 8.640000e+002 8.640000e+002 8.640000e+002 8.640000e+002 8.640000e+002 8.640000e+002
 8.640000e+002 8.640000e+002 8.640000e+002 8.640000e+002 8.640000e+002 8.640000e+002 8.640000e+002 8.640000e+002 8.640000e+002 8.640000e+002
 8.640000e+002
INTERNAL  1.000000e+000  (FREE)  -1  Ss Layer 5
 0.000000e-000 0.000000e-000 0.000000e-000 0.000000e-000 0.000000e-000 0.000000e-000 0.000000e-000 0.000000e-000 0.000000e-000 0.000000e-000
 0.000000e-000 0.000000e-000 0.000000e-000 0.000000e-000 0.000000e-000 0.000000e-000 0.000000e-000 0.000000e-000 0.000000e-000 0.000000e-000
 0.000000e-000
INTERNAL  1.000000e+000  (FREE)  -1  Kx Layer 6
 8.640000e+002 8.640000e+002 8.640000e+002 8.640000e+002 8.640000e+002 8.640000e+002 8.640000e+002 8.640000e+002 8.640000e+002 8.640000e+002
 8.640000e+002 8.640000e+002 8.640000e+002 8.640000e+002 8.640000e+002 8.640000e+002 8.640000e+002 8.640000e+002 8.640000e+002 8.640000e+002
 8.640000e+002
INTERNAL  1.000000e+000  (FREE)  -1  Kz Layer 6
 8.640000e+002 8.640000e+002 8.640000e+002 8.640000e+002 8.640000e+002 8.640000e+002 8.640000e+002 8.640000e+002 8.640000e+002 8.640000e+002
 8.640000e+002 8.640000e+002 8.640000e+002 8.640000e+002 8.640000e+002 8.640000e+002 8.640000e+002 8.640000e+002 8.640000e+002 8.640000e+002
 8.640000e+002
INTERNAL  1.000000e+000  (FREE)  -1  Ss Layer 6
 0.000000e-000 0.000000e-000 0.000000e-000 0.000000e-000 0.000000e-000 0.000000e-000 0.000000e-000 0.000000e-000 0.000000e-000 0.000000e-000
 0.000000e-000 0.000000e-000 0.000000e-000 0.000000e-000 0.000000e-000 0.000000e-000 0.000000e-000 0.000000e-000 0.000000e-000 0.000000e-000
 0.000000e-000
INTERNAL  1.000000e+000  (FREE)  -1  Kx Layer 7
 8.640000e+002 8.640000e+002 8.640000e+002 8.640000e+002 8.640000e+002 8.640000e+002 8.640000e+002 8.640000e+002 8.640000e+002 8.640000e+002
 8.640000e+002 8.640000e+002 8.640000e+002 8.640000e+002 8.640000e+002 8.640000e+002 8.640000e+002 8.640000e+002 8.640000e+002 8.640000e+002
 8.640000e+002
INTERNAL  1.000000e+000  (FREE)  -1  Kz Layer 7
 8.640000e+002 8.640000e+002 8.640000e+002 8.640000e+002 8.640000e+002 8.640000e+002 8.640000e+002 8.640000e+002 8.640000e+002 8.640000e+002
 8.640000e+002 8.640000e+002 8.640000e+002 8.640000e+002 8.640000e+002 8.640000e+002 8.640000e+002 8.640000e+002 8.640000e+002 8.640000e+002
 8.640000e+002
INTERNAL  1.000000e+000  (FREE)  -1  Ss Layer 7
 0.000000e-000 0.000000e-000 0.000000e-000 0.000000e-000 0.000000e-000 0.000000e-000 0.000000e-000 0.000000e-000 0.000000e-000 0.000000e-000
 0.000000e-000 0.000000e-000 0.000000e-000 0.000000e-000 0.000000e-000 0.000000e-000 0.000000e-000 0.000000e-000 0.000000e-000 0.000000e-000
 0.000000e-000
INTERNAL  1.000000e+000  (FREE)  -1  Kx Layer 8
 8.640000e+002 8.640000e+002 8.640000e+002 8.640000e+002 8.640000e+002 8.640000e+002 8.640000e+002 8.640000e+002 8.640000e+002 8.640000e+002
 8.640000e+002 8.640000e+002 8.640000e+002 8.640000e+002 8.640000e+002 8.640000e+002 8.640000e+002 8.640000e+002 8.640000e+002 8.640000e+002
 8.640000e+002
INTERNAL  1.000000e+000  (FREE)  -1  Kz Layer 8
 8.640000e+002 8.640000e+002 8.640000e+002 8.640000e+002 8.640000e+002 8.640000e+002 8.640000e+002 8.640000e+002 8.640000e+002 8.640000e+002
 8.640000e+002 8.640000e+002 8.640000e+002 8.640000e+002 8.640000e+002 8.640000e+002 8.640000e+002 8.640000e+002 8.640000e+002 8.640000e+002
 8.640000e+002
INTERNAL  1.000000e+000  (FREE)  -1  Ss Layer 8
 0.000000e-000 0.000000e-000 0.000000e-000 0.000000e-000 0.000000e-000 0.000000e-000 0.000000e-000 0.000000e-000 0.000000e-000 0.000000e-000
 0.000000e-000 0.000000e-000 0.000000e-000 0.000000e-000 0.000000e-000 0.000000e-000 0.000000e-000 0.000000e-000 0.000000e-000 0.000000e-000
 0.000000e-000
INTERNAL  1.000000e+000  (FREE)  -1  Kx Layer 9
 8.640000e+002 8.640000e+002 8.640000e+002 8.640000e+002 8.640000e+002 8.640000e+002 8.640000e+002 8.640000e+002 8.640000e+002 8.640000e+002
 8.640000e+002 8.640000e+002 8.640000e+002 8.640000e+002 8.640000e+002 8.640000e+002 8.640000e+002 8.640000e+002 8.640000e+002 8.640000e+002
 8.640000e+002
INTERNAL  1.000000e+000  (FREE)  -1  Kz Layer 9
 8.640000e+002 8.640000e+002 8.640000e+002 8.640000e+002 8.640000e+002 8.640000e+002 8.640000e+002 8.640000e+002 8.640000e+002 8.640000e+002
 8.640000e+002 8.640000e+002 8.640000e+002 8.640000e+002 8.640000e+002 8.640000e+002 8.640000e+002 8.640000e+002 8.640000e+002 8.640000e+002
 8.640000e+002
INTERNAL  1.000000e+000  (FREE)  -1  Ss Layer 9
 0.000000e-000 0.000000e-000 0.000000e-000 0.000000e-000 0.000000e-000 0.000000e-000 0.000000e-000 0.000000e-000 0.000000e-000 0.000000e-000
 0.000000e-000 0.000000e-000 0.000000e-000 0.000000e-000 0.000000e-000 0.000000e-000 0.000000e-000 0.000000e-000 0.000000e-000 0.000000e-000
 0.000000e-000
INTERNAL  1.000000e+000  (FREE)  -1  Kx Layer 10
 8.640000e+002 8.640000e+002 8.640000e+002 8.640000e+002 8.640000e+002 8.640000e+002 8.640000e+002 8.640000e+002 8.640000e+002 8.640000e+002
 8.640000e+002 8.640000e+002 8.640000e+002 8.640000e+002 8.640000e+002 8.640000e+002 8.640000e+002 8.640000e+002 8.640000e+002 8.640000e+002
 8.640000e+002
INTERNAL  1.000000e+000  (FREE)  -1  Kz Layer 10
 8.640000e+002 8.640000e+002 8.640000e+002 8.640000e+002 8.640000e+002 8.640000e+002 8.640000e+002 8.640000e+002 8.640000e+002 8.640000e+002
 8.640000e+002 8.640000e+002 8.640000e+002 8.640000e+002 8.640000e+002 8.640000e+002 8.640000e+002 8.640000e+002 8.640000e+002 8.640000e+002
 8.640000e+002
INTERNAL  1.000000e+000  (FREE)  -1  Ss Layer 10
 0.000000e-000 0.000000e-000 0.000000e-000 0.000000e-000 0.000000e-000 0.000000e-000 0.000000e-000 0.000000e-000 0.000000e-000 0.000000e-000
 0.000000e-000 0.000000e-000 0.000000e-000 0.000000e-000 0.000000e-000 0.000000e-000 0.000000e-000 0.000000e-000 0.000000e-000 0.000000e-000
 0.000000e-000
