# MODFLOW-USG Block-Centered Transport (BCT) Package
 1 0 1 1 3 1 0   -1.000000e+000 1.000000e-006    1 0 0.570240e+000 0 0 0
INTERNAL  1.000000e+000  (FREE)  -1  Porosity Layer 1
 3.500000e-001 3.500000e-001 3.500000e-001 3.500000e-001 3.500000e-001 3.500000e-001 3.500000e-001 3.500000e-001 3.500000e-001 3.500000e-001
 3.500000e-001 3.500000e-001 3.500000e-001 3.500000e-001 3.500000e-001 3.500000e-001 3.500000e-001 3.500000e-001 3.500000e-001 3.500000e-001
 3.500000e-001
INTERNAL  1.000000e+000  (FREE)  -1  Porosity Layer 2
 3.500000e-001 3.500000e-001 3.500000e-001 3.500000e-001 3.500000e-001 3.500000e-001 3.500000e-001 3.500000e-001 3.500000e-001 3.500000e-001
 3.500000e-001 3.500000e-001 3.500000e-001 3.500000e-001 3.500000e-001 3.500000e-001 3.500000e-001 3.500000e-001 3.500000e-001 3.500000e-001
 3.500000e-001
INTERNAL  1.000000e+000  (FREE)  -1  Porosity Layer 3
 3.500000e-001 3.500000e-001 3.500000e-001 3.500000e-001 3.500000e-001 3.500000e-001 3.500000e-001 3.500000e-001 3.500000e-001 3.500000e-001
 3.500000e-001 3.500000e-001 3.500000e-001 3.500000e-001 3.500000e-001 3.500000e-001 3.500000e-001 3.500000e-001 3.500000e-001 3.500000e-001
 3.500000e-001
INTERNAL  1.000000e+000  (FREE)  -1  Porosity Layer 4
 3.500000e-001 3.500000e-001 3.500000e-001 3.500000e-001 3.500000e-001 3.500000e-001 3.500000e-001 3.500000e-001 3.500000e-001 3.500000e-001
 3.500000e-001 3.500000e-001 3.500000e-001 3.500000e-001 3.500000e-001 3.500000e-001 3.500000e-001 3.500000e-001 3.500000e-001 3.500000e-001
 3.500000e-001
INTERNAL  1.000000e+000  (FREE)  -1  Porosity Layer 5
 3.500000e-001 3.500000e-001 3.500000e-001 3.500000e-001 3.500000e-001 3.500000e-001 3.500000e-001 3.500000e-001 3.500000e-001 3.500000e-001
 3.500000e-001 3.500000e-001 3.500000e-001 3.500000e-001 3.500000e-001 3.500000e-001 3.500000e-001 3.500000e-001 3.500000e-001 3.500000e-001
 3.500000e-001
INTERNAL  1.000000e+000  (FREE)  -1  Porosity Layer 6
 3.500000e-001 3.500000e-001 3.500000e-001 3.500000e-001 3.500000e-001 3.500000e-001 3.500000e-001 3.500000e-001 3.500000e-001 3.500000e-001
 3.500000e-001 3.500000e-001 3.500000e-001 3.500000e-001 3.500000e-001 3.500000e-001 3.500000e-001 3.500000e-001 3.500000e-001 3.500000e-001
 3.500000e-001
INTERNAL  1.000000e+000  (FREE)  -1  Porosity Layer 7
 3.500000e-001 3.500000e-001 3.500000e-001 3.500000e-001 3.500000e-001 3.500000e-001 3.500000e-001 3.500000e-001 3.500000e-001 3.500000e-001
 3.500000e-001 3.500000e-001 3.500000e-001 3.500000e-001 3.500000e-001 3.500000e-001 3.500000e-001 3.500000e-001 3.500000e-001 3.500000e-001
 3.500000e-001
INTERNAL  1.000000e+000  (FREE)  -1  Porosity Layer 8
 3.500000e-001 3.500000e-001 3.500000e-001 3.500000e-001 3.500000e-001 3.500000e-001 3.500000e-001 3.500000e-001 3.500000e-001 3.500000e-001
 3.500000e-001 3.500000e-001 3.500000e-001 3.500000e-001 3.500000e-001 3.500000e-001 3.500000e-001 3.500000e-001 3.500000e-001 3.500000e-001
 3.500000e-001
INTERNAL  1.000000e+000  (FREE)  -1  Porosity Layer 9
 3.500000e-001 3.500000e-001 3.500000e-001 3.500000e-001 3.500000e-001 3.500000e-001 3.500000e-001 3.500000e-001 3.500000e-001 3.500000e-001
 3.500000e-001 3.500000e-001 3.500000e-001 3.500000e-001 3.500000e-001 3.500000e-001 3.500000e-001 3.500000e-001 3.500000e-001 3.500000e-001
 3.500000e-001
INTERNAL  1.000000e+000  (FREE)  -1  Porosity Layer 10
 3.500000e-001 3.500000e-001 3.500000e-001 3.500000e-001 3.500000e-001 3.500000e-001 3.500000e-001 3.500000e-001 3.500000e-001 3.500000e-001
 3.500000e-001 3.500000e-001 3.500000e-001 3.500000e-001 3.500000e-001 3.500000e-001 3.500000e-001 3.500000e-001 3.500000e-001 3.500000e-001
 3.500000e-001
INTERNAL  1.000000e+000  (FREE)  -1  BULKD Layer 1
 1.570000e+002 1.570000e+002 1.570000e+002 1.570000e+002 1.570000e+002 1.570000e+002 1.570000e+002 1.570000e+002 1.570000e+002 1.570000e+002
 1.570000e+002 1.570000e+002 1.570000e+002 1.570000e+002 1.570000e+002 1.570000e+002 1.570000e+002 1.570000e+002 1.570000e+002 1.570000e+002
 1.570000e+002
INTERNAL  1.000000e+000  (FREE)  -1  BULKD Layer 2
 1.570000e+002 1.570000e+002 1.570000e+002 1.570000e+002 1.570000e+002 1.570000e+002 1.570000e+002 1.570000e+002 1.570000e+002 1.570000e+002
 1.570000e+002 1.570000e+002 1.570000e+002 1.570000e+002 1.570000e+002 1.570000e+002 1.570000e+002 1.570000e+002 1.570000e+002 1.570000e+002
 1.570000e+002
INTERNAL  1.000000e+000  (FREE)  -1  BULKD Layer 3
 1.570000e+002 1.570000e+002 1.570000e+002 1.570000e+002 1.570000e+002 1.570000e+002 1.570000e+002 1.570000e+002 1.570000e+002 1.570000e+002
 1.570000e+002 1.570000e+002 1.570000e+002 1.570000e+002 1.570000e+002 1.570000e+002 1.570000e+002 1.570000e+002 1.570000e+002 1.570000e+002
 1.570000e+002
INTERNAL  1.000000e+000  (FREE)  -1  BULKD Layer 4
 1.570000e+002 1.570000e+002 1.570000e+002 1.570000e+002 1.570000e+002 1.570000e+002 1.570000e+002 1.570000e+002 1.570000e+002 1.570000e+002
 1.570000e+002 1.570000e+002 1.570000e+002 1.570000e+002 1.570000e+002 1.570000e+002 1.570000e+002 1.570000e+002 1.570000e+002 1.570000e+002
 1.570000e+002
INTERNAL  1.000000e+000  (FREE)  -1  BULKD Layer 5
 1.570000e+002 1.570000e+002 1.570000e+002 1.570000e+002 1.570000e+002 1.570000e+002 1.570000e+002 1.570000e+002 1.570000e+002 1.570000e+002
 1.570000e+002 1.570000e+002 1.570000e+002 1.570000e+002 1.570000e+002 1.570000e+002 1.570000e+002 1.570000e+002 1.570000e+002 1.570000e+002
 1.570000e+002
INTERNAL  1.000000e+000  (FREE)  -1  BULKD Layer 6
 1.570000e+002 1.570000e+002 1.570000e+002 1.570000e+002 1.570000e+002 1.570000e+002 1.570000e+002 1.570000e+002 1.570000e+002 1.570000e+002
 1.570000e+002 1.570000e+002 1.570000e+002 1.570000e+002 1.570000e+002 1.570000e+002 1.570000e+002 1.570000e+002 1.570000e+002 1.570000e+002
 1.570000e+002
INTERNAL  1.000000e+000  (FREE)  -1  BULKD Layer 7
 1.570000e+002 1.570000e+002 1.570000e+002 1.570000e+002 1.570000e+002 1.570000e+002 1.570000e+002 1.570000e+002 1.570000e+002 1.570000e+002
 1.570000e+002 1.570000e+002 1.570000e+002 1.570000e+002 1.570000e+002 1.570000e+002 1.570000e+002 1.570000e+002 1.570000e+002 1.570000e+002
 1.570000e+002
INTERNAL  1.000000e+000  (FREE)  -1  BULKD Layer 8
 1.570000e+002 1.570000e+002 1.570000e+002 1.570000e+002 1.570000e+002 1.570000e+002 1.570000e+002 1.570000e+002 1.570000e+002 1.570000e+002
 1.570000e+002 1.570000e+002 1.570000e+002 1.570000e+002 1.570000e+002 1.570000e+002 1.570000e+002 1.570000e+002 1.570000e+002 1.570000e+002
 1.570000e+002
INTERNAL  1.000000e+000  (FREE)  -1  BULKD Layer 9
 1.570000e+002 1.570000e+002 1.570000e+002 1.570000e+002 1.570000e+002 1.570000e+002 1.570000e+002 1.570000e+002 1.570000e+002 1.570000e+002
 1.570000e+002 1.570000e+002 1.570000e+002 1.570000e+002 1.570000e+002 1.570000e+002 1.570000e+002 1.570000e+002 1.570000e+002 1.570000e+002
 1.570000e+002
INTERNAL  1.000000e+000  (FREE)  -1  BULKD Layer 10
 1.570000e+002 1.570000e+002 1.570000e+002 1.570000e+002 1.570000e+002 1.570000e+002 1.570000e+002 1.570000e+002 1.570000e+002 1.570000e+002
 1.570000e+002 1.570000e+002 1.570000e+002 1.570000e+002 1.570000e+002 1.570000e+002 1.570000e+002 1.570000e+002 1.570000e+002 1.570000e+002
 1.570000e+002
INTERNAL  1.0  (FREE)  -1  ANGLEX by NJAG
 0.000000e+000 0.000000e+000 0.000000e+000
 0.000000e+000 0.000000e+000 0.000000e+000 0.000000e+000
 0.000000e+000 0.000000e+000 0.000000e+000 0.000000e+000
 0.000000e+000 0.000000e+000 0.000000e+000 0.000000e+000
 0.000000e+000 0.000000e+000 0.000000e+000 0.000000e+000
 0.000000e+000 0.000000e+000 0.000000e+000 0.000000e+000
 0.000000e+000 0.000000e+000 0.000000e+000 0.000000e+000
 0.000000e+000 0.000000e+000 0.000000e+000 0.000000e+000
 0.000000e+000 0.000000e+000 0.000000e+000 0.000000e+000
 0.000000e+000 0.000000e+000 0.000000e+000 0.000000e+000
 0.000000e+000 0.000000e+000 0.000000e+000 0.000000e+000
 0.000000e+000 0.000000e+000 0.000000e+000 0.000000e+000
 0.000000e+000 0.000000e+000 0.000000e+000 0.000000e+000
 0.000000e+000 0.000000e+000 0.000000e+000 0.000000e+000
 0.000000e+000 0.000000e+000 0.000000e+000 0.000000e+000
 0.000000e+000 0.000000e+000 0.000000e+000 0.000000e+000
 0.000000e+000 0.000000e+000 0.000000e+000 0.000000e+000
 0.000000e+000 0.000000e+000 0.000000e+000 0.000000e+000
 0.000000e+000 0.000000e+000 0.000000e+000 0.000000e+000
 0.000000e+000 0.000000e+000 0.000000e+000 0.000000e+000
 0.000000e+000 0.000000e+000 0.000000e+000
 0.000000e+000 0.000000e+000 0.000000e+000 0.000000e+000
 0.000000e+000 0.000000e+000 0.000000e+000 0.000000e+000 0.000000e+000
 0.000000e+000 0.000000e+000 0.000000e+000 0.000000e+000 0.000000e+000
 0.000000e+000 0.000000e+000 0.000000e+000 0.000000e+000 0.000000e+000
 0.000000e+000 0.000000e+000 0.000000e+000 0.000000e+000 0.000000e+000
 0.000000e+000 0.000000e+000 0.000000e+000 0.000000e+000 0.000000e+000
 0.000000e+000 0.000000e+000 0.000000e+000 0.000000e+000 0.000000e+000
 0.000000e+000 0.000000e+000 0.000000e+000 0.000000e+000 0.000000e+000
 0.000000e+000 0.000000e+000 0.000000e+000 0.000000e+000 0.000000e+000
 0.000000e+000 0.000000e+000 0.000000e+000 0.000000e+000 0.000000e+000
 0.000000e+000 0.000000e+000 0.000000e+000 0.000000e+000 0.000000e+000
 0.000000e+000 0.000000e+000 0.000000e+000 0.000000e+000 0.000000e+000
 0.000000e+000 0.000000e+000 0.000000e+000 0.000000e+000 0.000000e+000
 0.000000e+000 0.000000e+000 0.000000e+000 0.000000e+000 0.000000e+000
 0.000000e+000 0.000000e+000 0.000000e+000 0.000000e+000 0.000000e+000
 0.000000e+000 0.000000e+000 0.000000e+000 0.000000e+000 0.000000e+000
 0.000000e+000 0.000000e+000 0.000000e+000 0.000000e+000 0.000000e+000
 0.000000e+000 0.000000e+000 0.000000e+000 0.000000e+000 0.000000e+000
 0.000000e+000 0.000000e+000 0.000000e+000 0.000000e+000 0.000000e+000
 0.000000e+000 0.000000e+000 0.000000e+000 0.000000e+000 0.000000e+000
 0.000000e+000 0.000000e+000 0.000000e+000 0.000000e+000
 0.000000e+000 0.000000e+000 0.000000e+000 0.000000e+000
 0.000000e+000 0.000000e+000 0.000000e+000 0.000000e+000 0.000000e+000
 0.000000e+000 0.000000e+000 0.000000e+000 0.000000e+000 0.000000e+000
 0.000000e+000 0.000000e+000 0.000000e+000 0.000000e+000 0.000000e+000
 0.000000e+000 0.000000e+000 0.000000e+000 0.000000e+000 0.000000e+000
 0.000000e+000 0.000000e+000 0.000000e+000 0.000000e+000 0.000000e+000
 0.000000e+000 0.000000e+000 0.000000e+000 0.000000e+000 0.000000e+000
 0.000000e+000 0.000000e+000 0.000000e+000 0.000000e+000 0.000000e+000
 0.000000e+000 0.000000e+000 0.000000e+000 0.000000e+000 0.000000e+000
 0.000000e+000 0.000000e+000 0.000000e+000 0.000000e+000 0.000000e+000
 0.000000e+000 0.000000e+000 0.000000e+000 0.000000e+000 0.000000e+000
 0.000000e+000 0.000000e+000 0.000000e+000 0.000000e+000 0.000000e+000
 0.000000e+000 0.000000e+000 0.000000e+000 0.000000e+000 0.000000e+000
 0.000000e+000 0.000000e+000 0.000000e+000 0.000000e+000 0.000000e+000
 0.000000e+000 0.000000e+000 0.000000e+000 0.000000e+000 0.000000e+000
 0.000000e+000 0.000000e+000 0.000000e+000 0.000000e+000 0.000000e+000
 0.000000e+000 0.000000e+000 0.000000e+000 0.000000e+000 0.000000e+000
 0.000000e+000 0.000000e+000 0.000000e+000 0.000000e+000 0.000000e+000
 0.000000e+000 0.000000e+000 0.000000e+000 0.000000e+000 0.000000e+000
 0.000000e+000 0.000000e+000 0.000000e+000 0.000000e+000 0.000000e+000
 0.000000e+000 0.000000e+000 0.000000e+000 0.000000e+000
 0.000000e+000 0.000000e+000 0.000000e+000 0.000000e+000
 0.000000e+000 0.000000e+000 0.000000e+000 0.000000e+000 0.000000e+000
 0.000000e+000 0.000000e+000 0.000000e+000 0.000000e+000 0.000000e+000
 0.000000e+000 0.000000e+000 0.000000e+000 0.000000e+000 0.000000e+000
 0.000000e+000 0.000000e+000 0.000000e+000 0.000000e+000 0.000000e+000
 0.000000e+000 0.000000e+000 0.000000e+000 0.000000e+000 0.000000e+000
 0.000000e+000 0.000000e+000 0.000000e+000 0.000000e+000 0.000000e+000
 0.000000e+000 0.000000e+000 0.000000e+000 0.000000e+000 0.000000e+000
 0.000000e+000 0.000000e+000 0.000000e+000 0.000000e+000 0.000000e+000
 0.000000e+000 0.000000e+000 0.000000e+000 0.000000e+000 0.000000e+000
 0.000000e+000 0.000000e+000 0.000000e+000 0.000000e+000 0.000000e+000
 0.000000e+000 0.000000e+000 0.000000e+000 0.000000e+000 0.000000e+000
 0.000000e+000 0.000000e+000 0.000000e+000 0.000000e+000 0.000000e+000
 0.000000e+000 0.000000e+000 0.000000e+000 0.000000e+000 0.000000e+000
 0.000000e+000 0.000000e+000 0.000000e+000 0.000000e+000 0.000000e+000
 0.000000e+000 0.000000e+000 0.000000e+000 0.000000e+000 0.000000e+000
 0.000000e+000 0.000000e+000 0.000000e+000 0.000000e+000 0.000000e+000
 0.000000e+000 0.000000e+000 0.000000e+000 0.000000e+000 0.000000e+000
 0.000000e+000 0.000000e+000 0.000000e+000 0.000000e+000 0.000000e+000
 0.000000e+000 0.000000e+000 0.000000e+000 0.000000e+000 0.000000e+000
 0.000000e+000 0.000000e+000 0.000000e+000 0.000000e+000
 0.000000e+000 0.000000e+000 0.000000e+000 0.000000e+000
 0.000000e+000 0.000000e+000 0.000000e+000 0.000000e+000 0.000000e+000
 0.000000e+000 0.000000e+000 0.000000e+000 0.000000e+000 0.000000e+000
 0.000000e+000 0.000000e+000 0.000000e+000 0.000000e+000 0.000000e+000
 0.000000e+000 0.000000e+000 0.000000e+000 0.000000e+000 0.000000e+000
 0.000000e+000 0.000000e+000 0.000000e+000 0.000000e+000 0.000000e+000
 0.000000e+000 0.000000e+000 0.000000e+000 0.000000e+000 0.000000e+000
 0.000000e+000 0.000000e+000 0.000000e+000 0.000000e+000 0.000000e+000
 0.000000e+000 0.000000e+000 0.000000e+000 0.000000e+000 0.000000e+000
 0.000000e+000 0.000000e+000 0.000000e+000 0.000000e+000 0.000000e+000
 0.000000e+000 0.000000e+000 0.000000e+000 0.000000e+000 0.000000e+000
 0.000000e+000 0.000000e+000 0.000000e+000 0.000000e+000 0.000000e+000
 0.000000e+000 0.000000e+000 0.000000e+000 0.000000e+000 0.000000e+000
 0.000000e+000 0.000000e+000 0.000000e+000 0.000000e+000 0.000000e+000
 0.000000e+000 0.000000e+000 0.000000e+000 0.000000e+000 0.000000e+000
 0.000000e+000 0.000000e+000 0.000000e+000 0.000000e+000 0.000000e+000
 0.000000e+000 0.000000e+000 0.000000e+000 0.000000e+000 0.000000e+000
 0.000000e+000 0.000000e+000 0.000000e+000 0.000000e+000 0.000000e+000
 0.000000e+000 0.000000e+000 0.000000e+000 0.000000e+000 0.000000e+000
 0.000000e+000 0.000000e+000 0.000000e+000 0.000000e+000 0.000000e+000
 0.000000e+000 0.000000e+000 0.000000e+000 0.000000e+000
 0.000000e+000 0.000000e+000 0.000000e+000 0.000000e+000
 0.000000e+000 0.000000e+000 0.000000e+000 0.000000e+000 0.000000e+000
 0.000000e+000 0.000000e+000 0.000000e+000 0.000000e+000 0.000000e+000
 0.000000e+000 0.000000e+000 0.000000e+000 0.000000e+000 0.000000e+000
 0.000000e+000 0.000000e+000 0.000000e+000 0.000000e+000 0.000000e+000
 0.000000e+000 0.000000e+000 0.000000e+000 0.000000e+000 0.000000e+000
 0.000000e+000 0.000000e+000 0.000000e+000 0.000000e+000 0.000000e+000
 0.000000e+000 0.000000e+000 0.000000e+000 0.000000e+000 0.000000e+000
 0.000000e+000 0.000000e+000 0.000000e+000 0.000000e+000 0.000000e+000
 0.000000e+000 0.000000e+000 0.000000e+000 0.000000e+000 0.000000e+000
 0.000000e+000 0.000000e+000 0.000000e+000 0.000000e+000 0.000000e+000
 0.000000e+000 0.000000e+000 0.000000e+000 0.000000e+000 0.000000e+000
 0.000000e+000 0.000000e+000 0.000000e+000 0.000000e+000 0.000000e+000
 0.000000e+000 0.000000e+000 0.000000e+000 0.000000e+000 0.000000e+000
 0.000000e+000 0.000000e+000 0.000000e+000 0.000000e+000 0.000000e+000
 0.000000e+000 0.000000e+000 0.000000e+000 0.000000e+000 0.000000e+000
 0.000000e+000 0.000000e+000 0.000000e+000 0.000000e+000 0.000000e+000
 0.000000e+000 0.000000e+000 0.000000e+000 0.000000e+000 0.000000e+000
 0.000000e+000 0.000000e+000 0.000000e+000 0.000000e+000 0.000000e+000
 0.000000e+000 0.000000e+000 0.000000e+000 0.000000e+000 0.000000e+000
 0.000000e+000 0.000000e+000 0.000000e+000 0.000000e+000
 0.000000e+000 0.000000e+000 0.000000e+000 0.000000e+000
 0.000000e+000 0.000000e+000 0.000000e+000 0.000000e+000 0.000000e+000
 0.000000e+000 0.000000e+000 0.000000e+000 0.000000e+000 0.000000e+000
 0.000000e+000 0.000000e+000 0.000000e+000 0.000000e+000 0.000000e+000
 0.000000e+000 0.000000e+000 0.000000e+000 0.000000e+000 0.000000e+000
 0.000000e+000 0.000000e+000 0.000000e+000 0.000000e+000 0.000000e+000
 0.000000e+000 0.000000e+000 0.000000e+000 0.000000e+000 0.000000e+000
 0.000000e+000 0.000000e+000 0.000000e+000 0.000000e+000 0.000000e+000
 0.000000e+000 0.000000e+000 0.000000e+000 0.000000e+000 0.000000e+000
 0.000000e+000 0.000000e+000 0.000000e+000 0.000000e+000 0.000000e+000
 0.000000e+000 0.000000e+000 0.000000e+000 0.000000e+000 0.000000e+000
 0.000000e+000 0.000000e+000 0.000000e+000 0.000000e+000 0.000000e+000
 0.000000e+000 0.000000e+000 0.000000e+000 0.000000e+000 0.000000e+000
 0.000000e+000 0.000000e+000 0.000000e+000 0.000000e+000 0.000000e+000
 0.000000e+000 0.000000e+000 0.000000e+000 0.000000e+000 0.000000e+000
 0.000000e+000 0.000000e+000 0.000000e+000 0.000000e+000 0.000000e+000
 0.000000e+000 0.000000e+000 0.000000e+000 0.000000e+000 0.000000e+000
 0.000000e+000 0.000000e+000 0.000000e+000 0.000000e+000 0.000000e+000
 0.000000e+000 0.000000e+000 0.000000e+000 0.000000e+000 0.000000e+000
 0.000000e+000 0.000000e+000 0.000000e+000 0.000000e+000 0.000000e+000
 0.000000e+000 0.000000e+000 0.000000e+000 0.000000e+000
 0.000000e+000 0.000000e+000 0.000000e+000 0.000000e+000
 0.000000e+000 0.000000e+000 0.000000e+000 0.000000e+000 0.000000e+000
 0.000000e+000 0.000000e+000 0.000000e+000 0.000000e+000 0.000000e+000
 0.000000e+000 0.000000e+000 0.000000e+000 0.000000e+000 0.000000e+000
 0.000000e+000 0.000000e+000 0.000000e+000 0.000000e+000 0.000000e+000
 0.000000e+000 0.000000e+000 0.000000e+000 0.000000e+000 0.000000e+000
 0.000000e+000 0.000000e+000 0.000000e+000 0.000000e+000 0.000000e+000
 0.000000e+000 0.000000e+000 0.000000e+000 0.000000e+000 0.000000e+000
 0.000000e+000 0.000000e+000 0.000000e+000 0.000000e+000 0.000000e+000
 0.000000e+000 0.000000e+000 0.000000e+000 0.000000e+000 0.000000e+000
 0.000000e+000 0.000000e+000 0.000000e+000 0.000000e+000 0.000000e+000
 0.000000e+000 0.000000e+000 0.000000e+000 0.000000e+000 0.000000e+000
 0.000000e+000 0.000000e+000 0.000000e+000 0.000000e+000 0.000000e+000
 0.000000e+000 0.000000e+000 0.000000e+000 0.000000e+000 0.000000e+000
 0.000000e+000 0.000000e+000 0.000000e+000 0.000000e+000 0.000000e+000
 0.000000e+000 0.000000e+000 0.000000e+000 0.000000e+000 0.000000e+000
 0.000000e+000 0.000000e+000 0.000000e+000 0.000000e+000 0.000000e+000
 0.000000e+000 0.000000e+000 0.000000e+000 0.000000e+000 0.000000e+000
 0.000000e+000 0.000000e+000 0.000000e+000 0.000000e+000 0.000000e+000
 0.000000e+000 0.000000e+000 0.000000e+000 0.000000e+000 0.000000e+000
 0.000000e+000 0.000000e+000 0.000000e+000 0.000000e+000
 0.000000e+000 0.000000e+000 0.000000e+000 0.000000e+000
 0.000000e+000 0.000000e+000 0.000000e+000 0.000000e+000 0.000000e+000
 0.000000e+000 0.000000e+000 0.000000e+000 0.000000e+000 0.000000e+000
 0.000000e+000 0.000000e+000 0.000000e+000 0.000000e+000 0.000000e+000
 0.000000e+000 0.000000e+000 0.000000e+000 0.000000e+000 0.000000e+000
 0.000000e+000 0.000000e+000 0.000000e+000 0.000000e+000 0.000000e+000
 0.000000e+000 0.000000e+000 0.000000e+000 0.000000e+000 0.000000e+000
 0.000000e+000 0.000000e+000 0.000000e+000 0.000000e+000 0.000000e+000
 0.000000e+000 0.000000e+000 0.000000e+000 0.000000e+000 0.000000e+000
 0.000000e+000 0.000000e+000 0.000000e+000 0.000000e+000 0.000000e+000
 0.000000e+000 0.000000e+000 0.000000e+000 0.000000e+000 0.000000e+000
 0.000000e+000 0.000000e+000 0.000000e+000 0.000000e+000 0.000000e+000
 0.000000e+000 0.000000e+000 0.000000e+000 0.000000e+000 0.000000e+000
 0.000000e+000 0.000000e+000 0.000000e+000 0.000000e+000 0.000000e+000
 0.000000e+000 0.000000e+000 0.000000e+000 0.000000e+000 0.000000e+000
 0.000000e+000 0.000000e+000 0.000000e+000 0.000000e+000 0.000000e+000
 0.000000e+000 0.000000e+000 0.000000e+000 0.000000e+000 0.000000e+000
 0.000000e+000 0.000000e+000 0.000000e+000 0.000000e+000 0.000000e+000
 0.000000e+000 0.000000e+000 0.000000e+000 0.000000e+000 0.000000e+000
 0.000000e+000 0.000000e+000 0.000000e+000 0.000000e+000 0.000000e+000
 0.000000e+000 0.000000e+000 0.000000e+000 0.000000e+000
 0.000000e+000 0.000000e+000 0.000000e+000
 0.000000e+000 0.000000e+000 0.000000e+000 0.000000e+000
 0.000000e+000 0.000000e+000 0.000000e+000 0.000000e+000
 0.000000e+000 0.000000e+000 0.000000e+000 0.000000e+000
 0.000000e+000 0.000000e+000 0.000000e+000 0.000000e+000
 0.000000e+000 0.000000e+000 0.000000e+000 0.000000e+000
 0.000000e+000 0.000000e+000 0.000000e+000 0.000000e+000
 0.000000e+000 0.000000e+000 0.000000e+000 0.000000e+000
 0.000000e+000 0.000000e+000 0.000000e+000 0.000000e+000
 0.000000e+000 0.000000e+000 0.000000e+000 0.000000e+000
 0.000000e+000 0.000000e+000 0.000000e+000 0.000000e+000
 0.000000e+000 0.000000e+000 0.000000e+000 0.000000e+000
 0.000000e+000 0.000000e+000 0.000000e+000 0.000000e+000
 0.000000e+000 0.000000e+000 0.000000e+000 0.000000e+000
 0.000000e+000 0.000000e+000 0.000000e+000 0.000000e+000
 0.000000e+000 0.000000e+000 0.000000e+000 0.000000e+000
 0.000000e+000 0.000000e+000 0.000000e+000 0.000000e+000
 0.000000e+000 0.000000e+000 0.000000e+000 0.000000e+000
 0.000000e+000 0.000000e+000 0.000000e+000 0.000000e+000
 0.000000e+000 0.000000e+000 0.000000e+000 0.000000e+000
 0.000000e+000 0.000000e+000 0.000000e+000
INTERNAL  1.000000e+000  (FREE)  -1  DL Layer 1
 0.000000e+000 0.000000e+000 0.000000e+000 0.000000e+000 0.000000e+000 0.000000e+000 0.000000e+000 0.000000e+000 0.000000e+000 0.000000e+000
 0.000000e+000 0.000000e+000 0.000000e+000 0.000000e+000 0.000000e+000 0.000000e+000 0.000000e+000 0.000000e+000 0.000000e+000 0.000000e+000
 0.000000e+000
INTERNAL  1.000000e+000  (FREE)  -1  DL Layer 2
 0.000000e+000 0.000000e+000 0.000000e+000 0.000000e+000 0.000000e+000 0.000000e+000 0.000000e+000 0.000000e+000 0.000000e+000 0.000000e+000
 0.000000e+000 0.000000e+000 0.000000e+000 0.000000e+000 0.000000e+000 0.000000e+000 0.000000e+000 0.000000e+000 0.000000e+000 0.000000e+000
 0.000000e+000
INTERNAL  1.000000e+000  (FREE)  -1  DL Layer 3
 0.000000e+000 0.000000e+000 0.000000e+000 0.000000e+000 0.000000e+000 0.000000e+000 0.000000e+000 0.000000e+000 0.000000e+000 0.000000e+000
 0.000000e+000 0.000000e+000 0.000000e+000 0.000000e+000 0.000000e+000 0.000000e+000 0.000000e+000 0.000000e+000 0.000000e+000 0.000000e+000
 0.000000e+000
INTERNAL  1.000000e+000  (FREE)  -1  DL Layer 4
 0.000000e+000 0.000000e+000 0.000000e+000 0.000000e+000 0.000000e+000 0.000000e+000 0.000000e+000 0.000000e+000 0.000000e+000 0.000000e+000
 0.000000e+000 0.000000e+000 0.000000e+000 0.000000e+000 0.000000e+000 0.000000e+000 0.000000e+000 0.000000e+000 0.000000e+000 0.000000e+000
 0.000000e+000
INTERNAL  1.000000e+000  (FREE)  -1  DL Layer 5
 0.000000e+000 0.000000e+000 0.000000e+000 0.000000e+000 0.000000e+000 0.000000e+000 0.000000e+000 0.000000e+000 0.000000e+000 0.000000e+000
 0.000000e+000 0.000000e+000 0.000000e+000 0.000000e+000 0.000000e+000 0.000000e+000 0.000000e+000 0.000000e+000 0.000000e+000 0.000000e+000
 0.000000e+000
INTERNAL  1.000000e+000  (FREE)  -1  DL Layer 6
 0.000000e+000 0.000000e+000 0.000000e+000 0.000000e+000 0.000000e+000 0.000000e+000 0.000000e+000 0.000000e+000 0.000000e+000 0.000000e+000
 0.000000e+000 0.000000e+000 0.000000e+000 0.000000e+000 0.000000e+000 0.000000e+000 0.000000e+000 0.000000e+000 0.000000e+000 0.000000e+000
 0.000000e+000
INTERNAL  1.000000e+000  (FREE)  -1  DL Layer 7
 0.000000e+000 0.000000e+000 0.000000e+000 0.000000e+000 0.000000e+000 0.000000e+000 0.000000e+000 0.000000e+000 0.000000e+000 0.000000e+000
 0.000000e+000 0.000000e+000 0.000000e+000 0.000000e+000 0.000000e+000 0.000000e+000 0.000000e+000 0.000000e+000 0.000000e+000 0.000000e+000
 0.000000e+000
INTERNAL  1.000000e+000  (FREE)  -1  DL Layer 8
 0.000000e+000 0.000000e+000 0.000000e+000 0.000000e+000 0.000000e+000 0.000000e+000 0.000000e+000 0.000000e+000 0.000000e+000 0.000000e+000
 0.000000e+000 0.000000e+000 0.000000e+000 0.000000e+000 0.000000e+000 0.000000e+000 0.000000e+000 0.000000e+000 0.000000e+000 0.000000e+000
 0.000000e+000
INTERNAL  1.000000e+000  (FREE)  -1  DL Layer 9
 0.000000e+000 0.000000e+000 0.000000e+000 0.000000e+000 0.000000e+000 0.000000e+000 0.000000e+000 0.000000e+000 0.000000e+000 0.000000e+000
 0.000000e+000 0.000000e+000 0.000000e+000 0.000000e+000 0.000000e+000 0.000000e+000 0.000000e+000 0.000000e+000 0.000000e+000 0.000000e+000
 0.000000e+000
INTERNAL  1.000000e+000  (FREE)  -1  DL Layer 10
 0.000000e+000 0.000000e+000 0.000000e+000 0.000000e+000 0.000000e+000 0.000000e+000 0.000000e+000 0.000000e+000 0.000000e+000 0.000000e+000
 0.000000e+000 0.000000e+000 0.000000e+000 0.000000e+000 0.000000e+000 0.000000e+000 0.000000e+000 0.000000e+000 0.000000e+000 0.000000e+000
 0.000000e+000
CONSTANT  0.000000e+000              DT Layer 1
CONSTANT  0.000000e+000              DT Layer 2
CONSTANT  0.000000e+000              DT Layer 3
CONSTANT  0.000000e+000              DT Layer 4
CONSTANT  0.000000e+000              DT Layer 5
CONSTANT  0.000000e+000              DT Layer 6
CONSTANT  0.000000e+000              DT Layer 7
CONSTANT  0.000000e+000              DT Layer 8
CONSTANT  0.000000e+000              DT Layer 9
INTERNAL  1.000000e+000  (FREE)  -1  DT Layer 10
 0.000000e+000 0.000000e+000 0.000000e+000 0.000000e+000 0.000000e+000 0.000000e+000 0.000000e+000 0.000000e+000 0.000000e+000 0.000000e+000
 0.000000e+000 0.000000e+000 0.000000e+000 0.000000e+000 0.000000e+000 0.000000e+000 0.000000e+000 0.000000e+000 0.000000e+000 0.000000e+000
 0.000000e+000
CONSTANT  0.000000e+000              ADSORB Layer 1
CONSTANT  0.000000e+000              ADSORB Layer 2
CONSTANT  0.000000e+000              ADSORB Layer 3
CONSTANT  0.000000e+000              ADSORB Layer 4
CONSTANT  0.000000e+000              ADSORB Layer 5
CONSTANT  0.000000e+000              ADSORB Layer 6
CONSTANT  0.000000e+000              ADSORB Layer 7
CONSTANT  0.000000e+000              ADSORB Layer 8
CONSTANT  0.000000e+000              ADSORB Layer 9
INTERNAL  1.000000e+000  (FREE)  -1  ADSORB Layer 10
 0.000000e+000 0.000000e+000 0.000000e+000 0.000000e+000 0.000000e+000 0.000000e+000 0.000000e+000 0.000000e+000 0.000000e+000 0.000000e+000
 0.000000e+000 0.000000e+000 0.000000e+000 0.000000e+000 0.000000e+000 0.000000e+000 0.000000e+000 0.000000e+000 0.000000e+000 0.000000e+000
 0.000000e+000
INTERNAL  1.000000e+000  (FREE)  -1  CONC Layer 1
 3.500000e+001 3.500000e+001 3.500000e+001 3.500000e+001 3.500000e+001 3.500000e+001 3.500000e+001 3.500000e+001 3.500000e+001 3.500000e+001
 3.500000e+001 3.500000e+001 3.500000e+001 3.500000e+001 3.500000e+001 3.500000e+001 3.500000e+001 3.500000e+001 3.500000e+001 3.500000e+001
 3.500000e+001
INTERNAL  1.000000e+000  (FREE)  -1  CONC Layer 2
 3.500000e+001 3.500000e+001 3.500000e+001 3.500000e+001 3.500000e+001 3.500000e+001 3.500000e+001 3.500000e+001 3.500000e+001 3.500000e+001
 3.500000e+001 3.500000e+001 3.500000e+001 3.500000e+001 3.500000e+001 3.500000e+001 3.500000e+001 3.500000e+001 3.500000e+001 3.500000e+001
 3.500000e+001
INTERNAL  1.000000e+000  (FREE)  -1  CONC Layer 3
 3.500000e+001 3.500000e+001 3.500000e+001 3.500000e+001 3.500000e+001 3.500000e+001 3.500000e+001 3.500000e+001 3.500000e+001 3.500000e+001
 3.500000e+001 3.500000e+001 3.500000e+001 3.500000e+001 3.500000e+001 3.500000e+001 3.500000e+001 3.500000e+001 3.500000e+001 3.500000e+001
 3.500000e+001
INTERNAL  1.000000e+000  (FREE)  -1  CONC Layer 4
 3.500000e+001 3.500000e+001 3.500000e+001 3.500000e+001 3.500000e+001 3.500000e+001 3.500000e+001 3.500000e+001 3.500000e+001 3.500000e+001
 3.500000e+001 3.500000e+001 3.500000e+001 3.500000e+001 3.500000e+001 3.500000e+001 3.500000e+001 3.500000e+001 3.500000e+001 3.500000e+001
 3.500000e+001
INTERNAL  1.000000e+000  (FREE)  -1  CONC Layer 5
 3.500000e+001 3.500000e+001 3.500000e+001 3.500000e+001 3.500000e+001 3.500000e+001 3.500000e+001 3.500000e+001 3.500000e+001 3.500000e+001
 3.500000e+001 3.500000e+001 3.500000e+001 3.500000e+001 3.500000e+001 3.500000e+001 3.500000e+001 3.500000e+001 3.500000e+001 3.500000e+001
 3.500000e+001
INTERNAL  1.000000e+000  (FREE)  -1  CONC Layer 6
 3.500000e+001 3.500000e+001 3.500000e+001 3.500000e+001 3.500000e+001 3.500000e+001 3.500000e+001 3.500000e+001 3.500000e+001 3.500000e+001
 3.500000e+001 3.500000e+001 3.500000e+001 3.500000e+001 3.500000e+001 3.500000e+001 3.500000e+001 3.500000e+001 3.500000e+001 3.500000e+001
 3.500000e+001
INTERNAL  1.000000e+000  (FREE)  -1  CONC Layer 7
 3.500000e+001 3.500000e+001 3.500000e+001 3.500000e+001 3.500000e+001 3.500000e+001 3.500000e+001 3.500000e+001 3.500000e+001 3.500000e+001
 3.500000e+001 3.500000e+001 3.500000e+001 3.500000e+001 3.500000e+001 3.500000e+001 3.500000e+001 3.500000e+001 3.500000e+001 3.500000e+001
 3.500000e+001
INTERNAL  1.000000e+000  (FREE)  -1  CONC Layer 8
 3.500000e+001 3.500000e+001 3.500000e+001 3.500000e+001 3.500000e+001 3.500000e+001 3.500000e+001 3.500000e+001 3.500000e+001 3.500000e+001
 3.500000e+001 3.500000e+001 3.500000e+001 3.500000e+001 3.500000e+001 3.500000e+001 3.500000e+001 3.500000e+001 3.500000e+001 3.500000e+001
 3.500000e+001
INTERNAL  1.000000e+000  (FREE)  -1  CONC Layer 9
 3.500000e+001 3.500000e+001 3.500000e+001 3.500000e+001 3.500000e+001 3.500000e+001 3.500000e+001 3.500000e+001 3.500000e+001 3.500000e+001
 3.500000e+001 3.500000e+001 3.500000e+001 3.500000e+001 3.500000e+001 3.500000e+001 3.500000e+001 3.500000e+001 3.500000e+001 3.500000e+001
 3.500000e+001
INTERNAL  1.000000e+000  (FREE)  -1  CONC Layer 10
 3.500000e+001 3.500000e+001 3.500000e+001 3.500000e+001 3.500000e+001 3.500000e+001 3.500000e+001 3.500000e+001 3.500000e+001 3.500000e+001