# MODFLOW-USGs Basic Package
# MODFLOW2000 Dataset Imported into Groundwater Vistas
#
 UNSTRUCTURED FREE
CONSTANT  1              IBOUND Layer 1
CONSTANT  1              IBOUND Layer 2
CONSTANT  1              IBOUND Layer 3
CONSTANT  1              IBOUND Layer 4
CONSTANT  1              IBOUND Layer 5
CONSTANT  1              IBOUND Layer 6
CONSTANT  1              IBOUND Layer 7
CONSTANT  1              IBOUND Layer 8
CONSTANT  1              IBOUND Layer 9
INTERNAL  1  (FREE)  -1  IBOUND Layer 10
 1 1 1 1 1 1 1 1 1 1
 1 1 1 1 1 1 1 1 1 1
 1
-9.999900e+002
INTERNAL  1.000000e+000  (FREE)  -1  Starting Heads Layer 1
 1.023100e+000 1.022429e+000 1.021746e+000 1.021049e+000 1.020337e+000 1.019606e+000 1.018853e+000 1.018075e+000 1.017266e+000 1.016426e+000
 1.015549e+000 1.014634e+000 1.013678e+000 1.012679e+000 1.011637e+000 1.010545e+000 1.009398e+000 1.008178e+000 1.006833e+000 1.005217e+000
 1.003916e+000
INTERNAL  1.000000e+000  (FREE)  -1  Starting Heads Layer 2
 1.023112e+000 1.022443e+000 1.021762e+000 1.021069e+000 1.020361e+000 1.019638e+000 1.018895e+000 1.018130e+000 1.017342e+000 1.016529e+000
 1.015693e+000 1.014833e+000 1.013954e+000 1.013060e+000 1.012159e+000 1.011255e+000 1.010354e+000 1.009449e+000 1.008483e+000 1.007245e+000
 1.005955e+000
INTERNAL  1.000000e+000  (FREE)  -1  Starting Heads Layer 3
 1.023136e+000 1.022468e+000 1.021791e+000 1.021105e+000 1.020408e+000 1.019697e+000 1.018973e+000 1.018236e+000 1.017485e+000 1.016724e+000
 1.015960e+000 1.015200e+000 1.014455e+000 1.013741e+000 1.013074e+000 1.012473e+000 1.011960e+000 1.011540e+000 1.011158e+000 1.010534e+000
 1.009403e+000
INTERNAL  1.000000e+000  (FREE)  -1  Starting Heads Layer 4
 1.023168e+000 1.022503e+000 1.021832e+000 1.021155e+000 1.020472e+000 1.019782e+000 1.019085e+000 1.018385e+000 1.017686e+000 1.016998e+000
 1.016333e+000 1.015707e+000 1.015139e+000 1.014652e+000 1.014273e+000 1.014033e+000 1.013960e+000 1.014067e+000 1.014291e+000 1.014310e+000
 1.013493e+000
INTERNAL  1.000000e+000  (FREE)  -1  Starting Heads Layer 5
 1.023206e+000 1.022545e+000 1.021881e+000 1.021216e+000 1.020550e+000 1.019884e+000 1.019222e+000 1.018567e+000 1.017933e+000 1.017333e+000
 1.016788e+000 1.016321e+000 1.015957e+000 1.015721e+000 1.015645e+000 1.015760e+000 1.016095e+000 1.016656e+000 1.017368e+000 1.017906e+000
 1.017504e+000
INTERNAL  1.000000e+000  (FREE)  -1  Starting Heads Layer 6
 1.023248e+000 1.022590e+000 1.021935e+000 1.021283e+000 1.020636e+000 1.019997e+000 1.019372e+000 1.018771e+000 1.018210e+000 1.017709e+000
 1.017296e+000 1.016999e+000 1.016846e+000 1.016857e+000 1.017058e+000 1.017469e+000 1.018108e+000 1.018966e+000 1.019969e+000 1.020872e+000
 1.020956e+000
INTERNAL  1.000000e+000  (FREE)  -1  Starting Heads Layer 7
 1.023287e+000 1.022634e+000 1.021987e+000 1.021349e+000 1.020722e+000 1.020111e+000 1.019526e+000 1.018980e+000 1.018492e+000 1.018093e+000
 1.017814e+000 1.017687e+000 1.017730e+000 1.017955e+000 1.018370e+000 1.018979e+000 1.019778e+000 1.020745e+000 1.021836e+000 1.022966e+000
 1.023892e+000
INTERNAL  1.000000e+000  (FREE)  -1  Starting Heads Layer 8
 1.023323e+000 1.022672e+000 1.022033e+000 1.021406e+000 1.020798e+000 1.020214e+000 1.019666e+000 1.019172e+000 1.018754e+000 1.018449e+000
 1.018293e+000 1.018314e+000 1.018519e+000 1.018901e+000 1.019442e+000 1.020136e+000 1.020953e+000 1.021819e+000 1.022714e+000 1.023635e+000
 1.024215e+000
INTERNAL  1.000000e+000  (FREE)  -1  Starting Heads Layer 9
 1.023348e+000 1.022701e+000 1.022068e+000 1.021451e+000 1.020858e+000 1.020295e+000 1.019776e+000 1.019323e+000 1.018962e+000 1.018731e+000
 1.018670e+000 1.018802e+000 1.019110e+000 1.019580e+000 1.020154e+000 1.020817e+000 1.021546e+000 1.022311e+000 1.023107e+000 1.023941e+000
 1.024439e+000
INTERNAL  1.000000e+000  (FREE)  -1  Starting Heads Layer 10
 1.023363e+000 1.022716e+000 1.022087e+000 1.021475e+000 1.020890e+000 1.020340e+000 1.019840e+000 1.019410e+000 1.019081e+000 1.018891e+000
 1.018883e+000 1.019075e+000 1.019413e+000 1.019871e+000 1.020423e+000 1.021051e+000 1.021739e+000 1.022470e+000 1.023244e+000 1.024071e+000
 1.024572e+000







CONSTANT  1.000000e+000  (FREE)  -1  Starting Heads Layer 1
CONSTANT  1.000000e+000  (FREE)  -1  Starting Heads Layer 2
CONSTANT  1.000000e+000  (FREE)  -1  Starting Heads Layer 3
CONSTANT  1.000000e+000  (FREE)  -1  Starting Heads Layer 4
CONSTANT  1.000000e+000  (FREE)  -1  Starting Heads Layer 5
CONSTANT  1.000000e+000  (FREE)  -1  Starting Heads Layer 6
CONSTANT  1.000000e+000  (FREE)  -1  Starting Heads Layer 7
CONSTANT  1.000000e+000  (FREE)  -1  Starting Heads Layer 8
CONSTANT  1.000000e+000  (FREE)  -1  Starting Heads Layer 9
CONSTANT  1.000000e+000  (FREE)  -1  Starting Heads Layer 10





