 LISTING FILE: hsstest.m3d
                         UNIT  16
# Transport package input files                                                                                                                                                                         

 OPENING hsstest.btn
 FILE TYPE:BTN   UNIT   1

 OPENING hsstest.adv
 FILE TYPE:ADV   UNIT   2

 OPENING hsstest.dsp
 FILE TYPE:DSP   UNIT   3

 OPENING hsstest.ssm
 FILE TYPE:SSM   UNIT   4

 OPENING hsstest.gcg
 FILE TYPE:GCG   UNIT   9

 OPENING hsstest.hss
 FILE TYPE:HSS   UNIT  13
# Flow-Transport Link input file                                                                                                                                                                        

 OPENING hsstest.ftl
 FILE TYPE:FTL   UNIT  10
# Uncomment the following lines to override                                                                                                                                                             
# the default names of optional MT3DMS output files                                                                                                                                                     
# mt3d001.ucn, mt3d001.obs, mt3d001.mas, mt3d.cnf.                                                                                                                                                      
# The unit numbers for these files are preset in the                                                                                                                                                    
# MT3DMS code.                                                                                                                                                                                          
# data(binary) 201 species1.ucn                                                                                                                                                                         
# data         401 species1.obs                                                                                                                                                                         
# data         601 species1.mas                                                                                                                                                                         
# data         17  model_a.cnf                                                                                                                                                                          

                              +++++++++++++++++++++++++++++++++++++++++++++++++++++++++++++++++++++++
                              +                                                                     +
                              +                               MT3DMS                                +
                              +             A Modular 3D Multi-Species Transport Model              +
                              +    For Simulation of Advection, Dispersion and Chemical Reactions   +
                              +                of Contaminants in Groundwater Systems               +
                              +                                                                     +
                              +++++++++++++++++++++++++++++++++++++++++++++++++++++++++++++++++++++++

  ----- 
 | M T | 2D TEST PROBLEM for HSS Package                                                 
 | 3 D | UNIFORM FLOW FIELD with TIME-VARYING MASS LOADING SOURCE                        
  ----- 
 THE TRANSPORT MODEL CONSISTS OF     1 LAYER(S)   31 ROW(S)   46 COLUMN(S)
 NUMBER OF STRESS PERIOD(S) FOR TRANSPORT SIMULATION =    2
 NUMBER OF ALL COMPONENTS INCLUDED IN SIMULATION =    1
 NUMBER OF MOBILE COMPONENTS INCLUDED IN SIMULATION =    1
 UNIT FOR TIME IS  DAY;  UNIT FOR LENGTH IS   M ;  UNIT FOR MASS IS UNDF
 OPTIONAL PACKAGES INCLUDED IN CURRENT SIMULATION:
  o ADV   ON UNIT  2
  o DSP   ON UNIT  3
  o SSM   ON UNIT  4
  o GCG   ON UNIT  9
  o HSS   ON UNIT 13

 BTN5 -- BASIC TRANSPORT PACKAGE, VERSION 5, FEBRUARY 2010, INPUT READ FROM UNIT  1
      22970 ELEMENTS OF THE  X ARRAY USED BY THE BTN PACKAGE
       1427 ELEMENTS OF THE IX ARRAY USED BY THE BTN PACKAGE

 FMI5 -- FLOW MODEL INTERFACE PACKAGE, VERSION 5, FEBRUARY 2010, INPUT READ FROM UNIT 10
 FLOW MODEL IS STEADY-STATE
 FLOW MODEL CONTAINS CONSTANT-HEAD CELLS

 ADV5 -- ADVECTION PACKAGE, VERSION 5, FEBRUARY 2010, INPUT READ FROM UNIT  2
 ADVECTION IS SOLVED WITH THE ULTIMATE SCHEME
 COURANT NUMBER ALLOWED IN SOLVING THE ADVECTION TERM = 0.500    
          0 ELEMENTS OF THE  X ARRAY USED BY THE ADV PACKAGE
          0 ELEMENTS OF THE IX ARRAY USED BY THE ADV PACKAGE

 DSP5 -- DISPERSION PACKAGE, VERSION 5, FEBRUARY 2010, INPUT READ FROM UNIT  3
      15688 ELEMENTS OF THE  X ARRAY USED BY THE DSP PACKAGE
          0 ELEMENTS OF THE IX ARRAY USED BY THE DSP PACKAGE

 SSM5 -- SINK & SOURCE MIXING PACKAGE, VERSION 5, FEBRUARY 2010, INPUT READ FROM UNIT  4
 HEADER LINE OF THE SSM PACKAGE INPUT FILE:
 [option line]                                                                                                                                                                                           
 MAJOR STRESS COMPONENTS PRESENT IN THE FLOW MODEL:
  o WELL [WEL]
 MAXIMUM NUMBER OF POINT SINKS/SOURCES =     100
       1300 ELEMENTS OF THE  X ARRAY USED BY THE SSM PACKAGE
          0 ELEMENTS OF THE IX ARRAY BY THE SSM PACKAGE

 GCG5 -- GENERALIZED CONJUGATE GRADIENT SOLVER PACKAGE, VERSION 5, FEBRUARY 2010 INPUT READ FROM UNIT  9
 MAXIMUM OF    1 OUTER ITERATIONS
        AND  200 INNER ITERATIONS ALLOWED FOR CLOSURE
 THE PRECONDITIONING TYPE SELECTED IS MODIFIED INCOMPLETE CHOLESKY (MIC).
 DISPERSION CROSS TERMS LUMPED INTO RIGHT-HAND-SIDE
      31572 ELEMENTS OF THE  X ARRAY USED BY THE GCG PACKAGE
        600 ELEMENTS OF THE IX ARRAY USED BY THE GCG PACKAGE

 HSS5 -- MT3DMS-HSSM INTERFACE PACAKGE, VERSION 5, FEBRUARY 2010, INPUT READ FROM UNIT    13
#                                                                                                                                                                                                       
# HSS example input file                                                                                                                                                                                
#                                                                                                                                                                                                       
 MAXIMUM NO. OF HSS SOURCES =  10
 MAXIMUM NO. OF MODEL CELLS FOR A HSS SOURCE =  10
 MAXIMUM NO. OF TIME STEPS DEFINING A HSS SOURCE =1000
     140000 ELEMENTS OF THE  X ARRAY USED BY THE HSS PACKAGE
     100000 ELEMENTS OF THE IX ARRAY USED BY THE HSS PACKAGE

 ..........................................
 ELEMENTS OF THE  X ARRAY USED =    211531
 ELEMENTS OF THE IX ARRAY USED =    102028
 ..........................................

 LAYER NUMBER  AQUIFER TYPE
 ------------  ------------
       1            0
                                       WIDTH ALONG ROWS (DELR)  =   10.00000    
                                       WIDTH ALONG COLS (DELC)  =   10.00000    
                                       TOP ELEV. OF 1ST LAYER   =   10.00000    
                                       CELL THICKNESS (DZ)      =   10.00000     FOR LAYER  1
                                       POROSITY                 =  0.3000000     FOR LAYER  1
                                       CONCN. BOUNDARY ARRAY    =              1 FOR LAYER  1
                                       INITIAL CONC.: COMP.  01 =   0.000000     FOR LAYER  1

 VALUE INDICATING INACTIVE CONCENTRATION CELLS =   -999.0000    
 MINIMUM SATURATED THICKNESS [THKMIN] ALLOWED =  0.0000 OF TOTAL CELL THICKNESS


 OUTPUT CONTROL OPTIONS
 ----------------------

 PRINT CELL CONCENTRATION USING FORMAT CODE:    4
 PRINT PARTICLE NUMBER IN EACH CELL USING FORMAT CODE:    2
 PRINT RETARDATION FACTOR USING FORMAT CODE:    5
 PRINT DISPERSION COEFFICIENT USING FORMAT CODE:    4
 SAVE DISSOLVED PHASE CONCENTRATIONS IN UNFORMATTED FILES [MT3Dnnn.UCN]
  FOR EACH SPECIES ON UNITS 201 AND ABOVE

 SIMULATION RESULTS ARE SAVED EVERY   1 TRANSPORT STEP(S)

 NUMBER OF OBSERVATION POINTS =    4
 SAVE CONCENTRATIONS AT OBSERVATION POINTS IN FILES [MT3Dnnn.OBS]
  FOR EACH SPECIES ON UNITS 401 AND ABOVE, EVERY  1 TRANSPORT STEPS
 LOCATION OF OBSERVATION POINTS
 ..............................
 NUMBER  LAYER   ROW   COLUMN
   1        1     16     16
   2        1     16     18
   3        1     18     16
   4        1     16     31

 SAVE ONE-LINE SUMMARY OF MASS BUDGETS IN FILES [MT3Dnnn.MAS]
  FOR EACH SPECIES ON UNITS 601 AND ABOVE, EVERY  1 TRANSPORT STEPS

 MAXIMUM LENGTH ALONG THE X (J) AXIS =   460.0000    
 MAXIMUM LENGTH ALONG THE Y (I) AXIS =   310.0000    
 MAXIMUM LENGTH ALONG THE Z (K) AXIS =   10.00000    


 ADVECTION SOLUTION OPTIONS
 --------------------------

 ADVECTION IS SOLVED WITH THE ULTIMATE SCHEME
 COURANT NUMBER ALLOWED IN SOLVING THE ADVECTION TERM = 0.500    


 DISPERSION INPUT PARAMETERS
 ---------------------------

                                       LONG. DISPERSIVITY (AL)  =   10.00000     FOR LAYER  1
                                       H. TRANS./LONG. DISP.    =  0.3000000    
                                       V. TRANS./LONG. DISP.    =  0.3000000    
                                       DIFFUSION COEFFICIENT    =   0.000000    



                                               SOLUTION BY THE GENERALIZED CONJUGATE GRADIENT METHOD
                                               -----------------------------------------------------
                                     MAXIMUM OUTER ITERATIONS ALLOWED FOR CLOSURE =        1
                                     MAXIMUM INNER ITERATIONS ALLOWED FOR CLOSURE =      200
                                                    PRECONDITIONING TYPE SELECTED =    3
                                                           ACCELERATION PARAMETER =     1.0000    
                                       CONCENTRATION CHANGE CRITERION FOR CLOSURE =    0.10000E-05
                                       GCG CONCENTRATION CHANGE PRINTOUT INTERVAL =      999


 INPUT DATA FOR HSS LNAPL SOURCES
 --------------------------------

 LENGTH UNIT CONVERSION FACTOR FROM HSSM TO MT3DMS =   1.000    
 TIME UNIT CONVERSION FACTOR FROM HSSM TO MT3DMS   =   1.000    
 MASS UNIT CONVERSION FACTOR FROM HSSM TO MT3DMS   =   1.000    

 TOTAL NUMBER OF HSS SOURCES IN THIS SIMULATION =   1

 HSS Source No. 0001
 Source Definition File Name: hss_source.dat
 Source Definition File Read from Unit:   33
 [Layer,Row,Column]:    1   16   16; Species:  1
 Source Name: MTBE-1      
    Time      LNAPL_Plume_Radius   Mass_Loading_Rate
    0.000          0.000000           1000.000    
    1.000          0.000000           990.0500    
    2.000          0.000000           980.2000    
    3.000          0.000000           970.4500    
    4.000          0.000000           960.7900    
    5.000          0.000000           951.2300    
    6.000          0.000000           941.7600    
    7.000          0.000000           932.3900    
    8.000          0.000000           923.1200    
    9.000          0.000000           913.9300    
    10.00          0.000000           904.8400    
    11.00          0.000000           895.8300    
    12.00          0.000000           886.9200    
    13.00          0.000000           878.1000    
    14.00          0.000000           869.3600    
    15.00          0.000000           860.7100    
    16.00          0.000000           852.1400    
    17.00          0.000000           843.6600    
    18.00          0.000000           835.2700    
    19.00          0.000000           826.9600    
    20.00          0.000000           818.7300    
    21.00          0.000000           810.5800    
    22.00          0.000000           802.5200    
    23.00          0.000000           794.5300    
    24.00          0.000000           786.6300    
    25.00          0.000000           778.8000    
    26.00          0.000000           771.0500    
    27.00          0.000000           763.3800    
    28.00          0.000000           755.7800    
    29.00          0.000000           748.2600    
    30.00          0.000000           740.8200    
    31.00          0.000000           733.4500    
    32.00          0.000000           726.1500    
    33.00          0.000000           718.9200    
    34.00          0.000000           711.7700    
    35.00          0.000000           704.6900    
    36.00          0.000000           697.6800    
    37.00          0.000000           690.7300    
    38.00          0.000000           683.8600    
    39.00          0.000000           677.0600    
    40.00          0.000000           670.3200    
    41.00          0.000000           663.6500    
    42.00          0.000000           657.0500    
    43.00          0.000000           650.5100    
    44.00          0.000000           644.0400    
    45.00          0.000000           637.6300    
    46.00          0.000000           631.2800    
    47.00          0.000000           625.0000    
    48.00          0.000000           618.7800    
    49.00          0.000000           612.6300    
    50.00          0.000000           606.5300    
    51.00          0.000000           600.5000    
    52.00          0.000000           594.5200    
    53.00          0.000000           588.6000    
    54.00          0.000000           582.7500    
    55.00          0.000000           576.9500    
    56.00          0.000000           571.2100    
    57.00          0.000000           565.5300    
    58.00          0.000000           559.9000    
    59.00          0.000000           554.3300    
    60.00          0.000000           548.8100    
    61.00          0.000000           543.3500    
    62.00          0.000000           537.9400    
    63.00          0.000000           532.5900    
    64.00          0.000000           527.2900    
    65.00          0.000000           522.0500    
    66.00          0.000000           516.8500    
    67.00          0.000000           511.7100    
    68.00          0.000000           506.6200    
    69.00          0.000000           501.5800    
    70.00          0.000000           496.5900    
    71.00          0.000000           491.6400    
    72.00          0.000000           486.7500    
    73.00          0.000000           481.9100    
    74.00          0.000000           477.1100    
    75.00          0.000000           472.3700    
    76.00          0.000000           467.6700    
    77.00          0.000000           463.0100    
    78.00          0.000000           458.4100    
    79.00          0.000000           453.8400    
    80.00          0.000000           449.3300    
    81.00          0.000000           444.8600    
    82.00          0.000000           440.4300    
    83.00          0.000000           436.0500    
    84.00          0.000000           431.7100    
    85.00          0.000000           427.4100    
    86.00          0.000000           423.1600    
    87.00          0.000000           418.9500    
    88.00          0.000000           414.7800    
    89.00          0.000000           410.6600    
    90.00          0.000000           406.5700    
    91.00          0.000000           402.5200    
    92.00          0.000000           398.5200    
    93.00          0.000000           394.5500    
    94.00          0.000000           390.6300    
    95.00          0.000000           386.7400    
    96.00          0.000000           382.8900    
    97.00          0.000000           379.0800    
    98.00          0.000000           375.3100    
    99.00          0.000000           371.5800    
    100.0          0.000000           367.8800    
    101.0          0.000000           364.2200    
    102.0          0.000000           360.5900    
    103.0          0.000000           357.0100    
    104.0          0.000000           353.4500    
    105.0          0.000000           349.9400    
    106.0          0.000000           346.4600    
    107.0          0.000000           343.0100    
    108.0          0.000000           339.6000    
    109.0          0.000000           336.2200    
    110.0          0.000000           332.8700    
    111.0          0.000000           329.5600    
    112.0          0.000000           326.2800    
    113.0          0.000000           323.0300    
    114.0          0.000000           319.8200    
    115.0          0.000000           316.6400    
    116.0          0.000000           313.4900    
    117.0          0.000000           310.3700    
    118.0          0.000000           307.2800    
    119.0          0.000000           304.2200    
    120.0          0.000000           301.1900    
    121.0          0.000000           298.2000    
    122.0          0.000000           295.2300    
    123.0          0.000000           292.2900    
    124.0          0.000000           289.3800    
    125.0          0.000000           286.5000    
    126.0          0.000000           283.6500    
    127.0          0.000000           280.8300    
    128.0          0.000000           278.0400    
    129.0          0.000000           275.2700    
    130.0          0.000000           272.5300    
    131.0          0.000000           269.8200    
    132.0          0.000000           267.1400    
    133.0          0.000000           264.4800    
    134.0          0.000000           261.8500    
    135.0          0.000000           259.2400    
    136.0          0.000000           256.6600    
    137.0          0.000000           254.1100    
    138.0          0.000000           251.5800    
    139.0          0.000000           249.0800    
    140.0          0.000000           246.6000    
    141.0          0.000000           244.1400    
    142.0          0.000000           241.7100    
    143.0          0.000000           239.3100    
    144.0          0.000000           236.9300    
    145.0          0.000000           234.5700    
    146.0          0.000000           232.2400    
    147.0          0.000000           229.9300    
    148.0          0.000000           227.6400    
    149.0          0.000000           225.3700    
    150.0          0.000000           223.1300    
    151.0          0.000000           220.9100    
    152.0          0.000000           218.7100    
    153.0          0.000000           216.5400    
    154.0          0.000000           214.3800    
    155.0          0.000000           212.2500    
    156.0          0.000000           210.1400    
    157.0          0.000000           208.0500    
    158.0          0.000000           205.9800    
    159.0          0.000000           203.9300    
    160.0          0.000000           201.9000    
    161.0          0.000000           199.8900    
    162.0          0.000000           197.9000    
    163.0          0.000000           195.9300    
    164.0          0.000000           193.9800    
    165.0          0.000000           192.0500    
    166.0          0.000000           190.1400    
    167.0          0.000000           188.2500    
    168.0          0.000000           186.3700    
    169.0          0.000000           184.5200    
    170.0          0.000000           182.6800    
    171.0          0.000000           180.8700    
    172.0          0.000000           179.0700    
    173.0          0.000000           177.2800    
    174.0          0.000000           175.5200    
    175.0          0.000000           173.7700    
    176.0          0.000000           172.0400    
    177.0          0.000000           170.3300    
    178.0          0.000000           168.6400    
    179.0          0.000000           166.9600    
    180.0          0.000000           165.3000    
    181.0          0.000000           163.6500    
    182.0          0.000000           162.0300    
    183.0          0.000000           160.4100    
    184.0          0.000000           158.8200    
    185.0          0.000000           157.2400    
    186.0          0.000000           155.6700    
    187.0          0.000000           154.1200    
    188.0          0.000000           152.5900    
    189.0          0.000000           151.0700    
    190.0          0.000000           149.5700    
    191.0          0.000000           148.0800    
    192.0          0.000000           146.6100    
    193.0          0.000000           145.1500    
    194.0          0.000000           143.7000    
    195.0          0.000000           142.2700    
    196.0          0.000000           140.8600    
    197.0          0.000000           139.4600    
    198.0          0.000000           138.0700    
    199.0          0.000000           136.7000    
    200.0          0.000000           135.3400    
    201.0          0.000000           133.9900    
    202.0          0.000000           132.6600    
    203.0          0.000000           131.3400    
    204.0          0.000000           130.0300    
    205.0          0.000000           128.7300    
    206.0          0.000000           127.4500    
    207.0          0.000000           126.1900    
    208.0          0.000000           124.9300    
    209.0          0.000000           123.6900    
    210.0          0.000000           122.4600    
    211.0          0.000000           121.2400    
    212.0          0.000000           120.0300    
    213.0          0.000000           118.8400    
    214.0          0.000000           117.6500    
    215.0          0.000000           116.4800    
    216.0          0.000000           115.3300    
    217.0          0.000000           114.1800    
    218.0          0.000000           113.0400    
    219.0          0.000000           111.9200    
    220.0          0.000000           110.8000    
    221.0          0.000000           109.7000    
    222.0          0.000000           108.6100    
    223.0          0.000000           107.5300    
    224.0          0.000000           106.4600    
    225.0          0.000000           105.4000    
    226.0          0.000000           104.3500    
    227.0          0.000000           103.3100    
    228.0          0.000000           102.2800    
    229.0          0.000000           101.2700    
    230.0          0.000000           100.2600    
    231.0          0.000000           99.26000    
    232.0          0.000000           98.27000    
    233.0          0.000000           97.30000    
    234.0          0.000000           96.33000    
    235.0          0.000000           95.37000    
    236.0          0.000000           94.42000    
    237.0          0.000000           93.48000    
    238.0          0.000000           92.55000    
    239.0          0.000000           91.63000    
    240.0          0.000000           90.72000    
    241.0          0.000000           89.82000    
    242.0          0.000000           88.92000    
    243.0          0.000000           88.04000    
    244.0          0.000000           87.16000    
    245.0          0.000000           86.29000    
    246.0          0.000000           85.43000    
    247.0          0.000000           84.58000    
    248.0          0.000000           83.74000    
    249.0          0.000000           82.91000    
    250.0          0.000000           82.08000    
    251.0          0.000000           81.27000    
    252.0          0.000000           80.46000    
    253.0          0.000000           79.66000    
    254.0          0.000000           78.87000    
    255.0          0.000000           78.08000    
    256.0          0.000000           77.30000    
    257.0          0.000000           76.54000    
    258.0          0.000000           75.77000    
    259.0          0.000000           75.02000    
    260.0          0.000000           74.27000    
    261.0          0.000000           73.53000    
    262.0          0.000000           72.80000    
    263.0          0.000000           72.08000    
    264.0          0.000000           71.36000    
    265.0          0.000000           70.65000    
    266.0          0.000000           69.95000    
    267.0          0.000000           69.25000    
    268.0          0.000000           68.56000    
    269.0          0.000000           67.88000    
    270.0          0.000000           67.21000    
    271.0          0.000000           66.54000    
    272.0          0.000000           65.87000    
    273.0          0.000000           65.22000    
    274.0          0.000000           64.57000    
    275.0          0.000000           63.93000    
    276.0          0.000000           63.29000    
    277.0          0.000000           62.66000    
    278.0          0.000000           62.04000    
    279.0          0.000000           61.42000    
    280.0          0.000000           60.81000    
    281.0          0.000000           60.20000    
    282.0          0.000000           59.61000    
    283.0          0.000000           59.01000    
    284.0          0.000000           58.43000    
    285.0          0.000000           57.84000    
    286.0          0.000000           57.27000    
    287.0          0.000000           56.70000    
    288.0          0.000000           56.13000    
    289.0          0.000000           55.58000    
    290.0          0.000000           55.02000    
    291.0          0.000000           54.48000    
    292.0          0.000000           53.93000    
    293.0          0.000000           53.40000    
    294.0          0.000000           52.87000    
    295.0          0.000000           52.34000    
    296.0          0.000000           51.82000    
    297.0          0.000000           51.30000    
    298.0          0.000000           50.79000    
    299.0          0.000000           50.29000    
    300.0          0.000000           49.79000    
    301.0          0.000000           49.29000    
    302.0          0.000000           48.80000    
    303.0          0.000000           48.32000    
    304.0          0.000000           47.83000    
    305.0          0.000000           47.36000    
    306.0          0.000000           46.89000    
    307.0          0.000000           46.42000    
    308.0          0.000000           45.96000    
    309.0          0.000000           45.50000    
    310.0          0.000000           45.05000    
    311.0          0.000000           44.60000    
    312.0          0.000000           44.16000    
    313.0          0.000000           43.72000    
    314.0          0.000000           43.28000    
    315.0          0.000000           42.85000    
    316.0          0.000000           42.43000    
    317.0          0.000000           42.00000    
    318.0          0.000000           41.59000    
    319.0          0.000000           41.17000    
    320.0          0.000000           40.76000    
    321.0          0.000000           40.36000    
    322.0          0.000000           39.96000    
    323.0          0.000000           39.56000    
    324.0          0.000000           39.16000    
    325.0          0.000000           38.77000    
    326.0          0.000000           38.39000    
    327.0          0.000000           38.01000    
    328.0          0.000000           37.63000    
    329.0          0.000000           37.25000    
    330.0          0.000000           36.88000    
    331.0          0.000000           36.52000    
    332.0          0.000000           36.15000    
    333.0          0.000000           35.79000    
    334.0          0.000000           35.44000    
    335.0          0.000000           35.08000    
    336.0          0.000000           34.74000    
    337.0          0.000000           34.39000    
    338.0          0.000000           34.05000    
    339.0          0.000000           33.71000    
    340.0          0.000000           33.37000    
    341.0          0.000000           33.04000    
    342.0          0.000000           32.71000    
    343.0          0.000000           32.39000    
    344.0          0.000000           32.06000    
    345.0          0.000000           31.75000    
    346.0          0.000000           31.43000    
    347.0          0.000000           31.12000    
    348.0          0.000000           30.81000    
    349.0          0.000000           30.50000    
    350.0          0.000000           30.20000    
    351.0          0.000000           29.90000    
    352.0          0.000000           29.60000    
    353.0          0.000000           29.30000    
    354.0          0.000000           29.01000    
    355.0          0.000000           28.72000    
    356.0          0.000000           28.44000    
    357.0          0.000000           28.16000    
    358.0          0.000000           27.88000    
    359.0          0.000000           27.60000    
    360.0          0.000000           27.32000    