#
# MT3DMS v5.3 Name file for HSS package test problem
#

# Standard output file
LIST  0   hsstest.m3d

# Transport package input files
BTN   0   hsstest.btn
ADV   0   hsstest.adv
DSP   0   hsstest.dsp
SSM   0   hsstest.ssm
GCG   0   hsstest.gcg
HSS   0   hsstest.hss

# Flow-Transport Link input file
FTL   0   hsstest.ftl  noprint

# Uncomment the following lines to override
# the default names of optional MT3DMS output files
# mt3d001.ucn, mt3d001.obs, mt3d001.mas, mt3d.cnf.
# The unit numbers for these files are preset in the
# MT3DMS code.

# data(binary) 201 species1.ucn
# data         401 species1.obs
# data         601 species1.mas
# data         17  model_a.cnf
