# Conversion from Groundwater Vistas
# MT3D Model
         5        17        17         1         1         1
D   FT  LB  
 T F T F T
 1 1 1 1 1 1 1 1 1 1
       100    1.0000(10F13.0)                   -1     DELTA-X or C
 2.500000E+02 1.000000E+03 1.000000E+03 1.000000E+03 1.000000E+03 1.000000E+03 5.000000E+02 5.000000E+02 5.000000E+02 5.000000E+02
 5.000000E+02 1.000000E+03 1.000000E+03 1.000000E+03 1.000000E+03 1.000000E+03 2.500000E+02
       100    1.0000(10F13.0)                   -1     DELTA-Y or R
 2.500000E+02 1.000000E+03 1.000000E+03 1.000000E+03 1.000000E+03 1.000000E+03 5.000000E+02 5.000000E+02 5.000000E+02 5.000000E+02
 5.000000E+02 1.000000E+03 1.000000E+03 1.000000E+03 1.000000E+03 1.000000E+03 2.500000E+02
         0     500.0(10E12.4)                   -1     TOP OF MODEL
         0   393.000(10E12.4)                   -1     DELZ Layer   1
         0    10.000(10E12.4)                   -1     DELZ Layer   2
         0    10.000(10E12.4)                   -1     DELZ Layer   3
         0    10.000(10E12.4)                   -1     DELZ Layer   4
         0    10.000(10E12.4)                   -1     DELZ Layer   5
         0       0.2(10E12.4)                   -1     POROSITY Layer   1
         0       0.2(10E12.4)                   -1     POROSITY Layer   2
         0       0.2(10E12.4)                   -1     POROSITY Layer   3
         0       0.2(10E12.4)                   -1     POROSITY Layer   4
         0       0.2(10E12.4)                   -1     POROSITY Layer   5
         0         1(25I3)                       0     ICBUND Layer   1
         0         1(25I3)                       0     ICBUND Layer   2
         0         1(25I3)                       0     ICBUND Layer   3
         0         1(25I3)                       0     ICBUND Layer   4
         0         1(25I3)                       0     ICBUND Layer   5
       000     0.000(10E12.4)                   -1     INITIAL CONCENTRATION Layer   1
       000     0.000(10E12.4)                   -1     INITIAL CONCENTRATION Layer   2
       000     0.000(10E12.4)                   -1     INITIAL CONCENTRATION Layer   3
       000     0.000(10E12.4)                   -1     INITIAL CONCENTRATION Layer   4
       000     0.000(10E12.4)                   -1     INITIAL CONCENTRATION Layer   5
-1.000e+00 1.000e-03
         0         0         0         0         T         F
         6                                                      # NPRS
       100      1000      2000      3000      4000      5000    # TIMPRS(NPRS)
         0        10
         T        10
5.0000e+03       1001.0200e+00
1.0000e-00     30000 1.200e+00 1.000e-00

