MT3DMS Benchmark Test Problem #2
Based on GROVE & STOLLENWERK (1984)
         1         1       101         1         4
 11 00 00  0  0  0  0 00 19  0  0 22 00 00 00 00 00 00 00 00 00 24 00 00
         0         0                                  /IAPART,ISTRT
         1         0(40I2)                       2    /IBOUND-1
-1 1 1 1 1 1 1 1 1 1 1 1 1 1 1 1 1 1 1 1 1 1 1 1 1 1 1 1 1 1 1 1 1 1 1 1 1 1 1 1
 1 1 1 1 1 1 1 1 1 1 1 1 1 1 1 1 1 1 1 1 1 1 1 1 1 1 1 1 1 1 1 1 1 1 1 1 1 1 1 1
 1 1 1 1 1 1 1 1 1 1 1 1 1 1 1 1 1 1 1 1-1
    999.99
         1        0.(16f5.0)                     1    /HEAD-1
0.592    0    0    0    0    0    0    0    0    0    0    0    0    0    0    0
    0    0    0    0    0    0    0    0    0    0    0    0    0    0    0    0
    0    0    0    0    0    0    0    0    0    0    0    0    0    0    0    0
    0    0    0    0    0    0    0    0    0    0    0    0    0    0    0    0
    0    0    0    0    0    0    0    0    0    0    0    0    0    0    0    0
    0    0    0    0    0    0    0    0    0    0    0    0    0    0    0    0
    0    0    0    0    0
        1.         1        1.                        /PERLEN,NSTP,TSMULT
