# MODFLOW-USG Block-Centered Transport (BCT) Package
 1 37 1 1 2 1 0   -1.000000e+000 1.000000e-006    1 0 0.000000e+000 0 0
INTERNAL  1.000000e+000  (FREE)  -1  Porosity Layer 1
 1.000000e-002 1.000000e-002 1.000000e-002 1.000000e-002 1.000000e-002 1.000000e-002 1.000000e-002 1.000000e-002 1.000000e-002 1.000000e-002
 1.000000e-002 1.000000e-002 1.000000e-002 1.000000e-002 1.000000e-002 1.000000e-002 1.000000e-002 1.000000e-002 1.000000e-002 1.000000e-002
 1.000000e-002 1.000000e-002 1.000000e-002 1.000000e-002 1.000000e-002 1.000000e-002 1.000000e-002 1.000000e-002 1.000000e-002 1.000000e-002
 1.000000e-002 1.000000e-002 1.000000e-002 1.000000e-002 1.000000e-002 1.000000e-002 1.000000e-002 1.000000e-002 1.000000e-002 1.000000e-002
 1.000000e-002 1.000000e-002 1.000000e-002 1.000000e-002 1.000000e-002 1.000000e-002 1.000000e-002 1.000000e-002 1.000000e-002 1.000000e-002
 1.000000e-002 1.000000e-002 1.000000e-002 1.000000e-002 1.000000e-002 1.000000e-002 1.000000e-002 1.000000e-002 1.000000e-002 1.000000e-002
 1.000000e-002 1.000000e-002 1.000000e-002 1.000000e-002 1.000000e-002 1.000000e-002 1.000000e-002 1.000000e-002 1.000000e-002 1.000000e-002
 1.000000e-002 1.000000e-002 1.000000e-002 1.000000e-002 1.000000e-002 1.000000e-002 1.000000e-002 1.000000e-002 1.000000e-002 1.000000e-002
 1.000000e-002 1.000000e-002 1.000000e-002 1.000000e-002 1.000000e-002 1.000000e-002 1.000000e-002 1.000000e-002 1.000000e-002 1.000000e-002
 1.000000e-002 1.000000e-002 1.000000e-002 1.000000e-002 1.000000e-002 1.000000e-002 1.000000e-002 1.000000e-002 1.000000e-002 1.000000e-002
 1.000000e-002 1.000000e-002 1.000000e-002 1.000000e-002 1.000000e-002 1.000000e-002 1.000000e-002 1.000000e-002 1.000000e-002 1.000000e-002
 1.000000e-002 1.000000e-002 1.000000e-002 1.000000e-002 1.000000e-002 1.000000e-002 1.000000e-002 1.000000e-002 1.000000e-002 1.000000e-002
 1.000000e-002 1.000000e-002 1.000000e-002 1.000000e-002 1.000000e-002 1.000000e-002 1.000000e-002 1.000000e-002 1.000000e-002 1.000000e-002
 1.000000e-002 1.000000e-002 1.000000e-002 1.000000e-002 1.000000e-002 1.000000e-002 1.000000e-002 1.000000e-002 1.000000e-002 1.000000e-002
 1.000000e-002 1.000000e-002 1.000000e-002 1.000000e-002 1.000000e-002 1.000000e-002 1.000000e-002 1.000000e-002 1.000000e-002 1.000000e-002
 1.000000e-002 1.000000e-002 1.000000e-002 1.000000e-002 1.000000e-002 1.000000e-002 1.000000e-002 1.000000e-002 1.000000e-002 1.000000e-002
 1.000000e-002 1.000000e-002 1.000000e-002 1.000000e-002 1.000000e-002 1.000000e-002 1.000000e-002 1.000000e-002 1.000000e-002 1.000000e-002
 1.000000e-002 1.000000e-002 1.000000e-002 1.000000e-002 1.000000e-002 1.000000e-002 1.000000e-002 1.000000e-002 1.000000e-002 1.000000e-002
 1.000000e-002 1.000000e-002 1.000000e-002 1.000000e-002 1.000000e-002 1.000000e-002 1.000000e-002 1.000000e-002 1.000000e-002 1.000000e-002
 1.000000e-002 1.000000e-002 1.000000e-002 1.000000e-002 1.000000e-002 1.000000e-002 1.000000e-002 1.000000e-002 1.000000e-002 1.000000e-002
 1.000000e-002 1.000000e-002 1.000000e-002 1.000000e-002 1.000000e-002 1.000000e-002 1.000000e-002 1.000000e-002 1.000000e-002 1.000000e-002
 1.000000e-002 1.000000e-002 1.000000e-002 1.000000e-002 1.000000e-002 1.000000e-002 1.000000e-002 1.000000e-002 1.000000e-002 1.000000e-002
 1.000000e-002 1.000000e-002 1.000000e-002 1.000000e-002 1.000000e-002 1.000000e-002 1.000000e-002 1.000000e-002 1.000000e-002 1.000000e-002
 1.000000e-002 1.000000e-002 1.000000e-002 1.000000e-002 1.000000e-002 1.000000e-002 1.000000e-002 1.000000e-002 1.000000e-002 1.000000e-002
 1.000000e-002 1.000000e-002 1.000000e-002 1.000000e-002 1.000000e-002 1.000000e-002 1.000000e-002 1.000000e-002 1.000000e-002 1.000000e-002
 1.000000e-002 1.000000e-002 1.000000e-002 1.000000e-002 1.000000e-002 1.000000e-002 1.000000e-002 1.000000e-002 1.000000e-002 1.000000e-002
 1.000000e-002 1.000000e-002 1.000000e-002 1.000000e-002 1.000000e-002 1.000000e-002 1.000000e-002 1.000000e-002 1.000000e-002 1.000000e-002
 1.000000e-002 1.000000e-002 1.000000e-002 1.000000e-002 1.000000e-002 1.000000e-002 1.000000e-002 1.000000e-002 1.000000e-002 1.000000e-002
 1.000000e-002 1.000000e-002 1.000000e-002 1.000000e-002 1.000000e-002 1.000000e-002 1.000000e-002 1.000000e-002 1.000000e-002 1.000000e-002
 1.000000e-002 1.000000e-002 1.000000e-002 1.000000e-002 1.000000e-002 1.000000e-002 1.000000e-002 1.000000e-002 1.000000e-002 1.000000e-002
 1.000000e-002 1.000000e-002 1.000000e-002 1.000000e-002 1.000000e-002 1.000000e-002 1.000000e-002 1.000000e-002 1.000000e-002 1.000000e-002
 1.000000e-002 1.000000e-002 1.000000e-002 1.000000e-002 1.000000e-002 1.000000e-002 1.000000e-002 1.000000e-002 1.000000e-002 1.000000e-002
 1.000000e-002 1.000000e-002 1.000000e-002 1.000000e-002 1.000000e-002 1.000000e-002 1.000000e-002 1.000000e-002 1.000000e-002 1.000000e-002
 1.000000e-002 1.000000e-002 1.000000e-002 1.000000e-002 1.000000e-002 1.000000e-002 1.000000e-002 1.000000e-002 1.000000e-002 1.000000e-002
 1.000000e-002 1.000000e-002 1.000000e-002 1.000000e-002 1.000000e-002 1.000000e-002 1.000000e-002 1.000000e-002 1.000000e-002 1.000000e-002
 1.000000e-002 1.000000e-002 1.000000e-002 1.000000e-002 1.000000e-002 1.000000e-002 1.000000e-002 1.000000e-002 1.000000e-002 1.000000e-002
 1.000000e-002 1.000000e-002 1.000000e-002 1.000000e-002 1.000000e-002 1.000000e-002 1.000000e-002 1.000000e-002 1.000000e-002 1.000000e-002
 1.000000e-002 1.000000e-002 1.000000e-002 1.000000e-002 1.000000e-002 1.000000e-002 1.000000e-002 1.000000e-002 1.000000e-002 1.000000e-002
 1.000000e-002 1.000000e-002 1.000000e-002 1.000000e-002 1.000000e-002 1.000000e-002 1.000000e-002 1.000000e-002 1.000000e-002 1.000000e-002
 1.000000e-002 1.000000e-002 1.000000e-002 1.000000e-002 1.000000e-002 1.000000e-002 1.000000e-002 1.000000e-002 1.000000e-002 1.000000e-002
 1.000000e-002 1.000000e-002 1.000000e-002 1.000000e-002 1.000000e-002 1.000000e-002 1.000000e-002 1.000000e-002 1.000000e-002 1.000000e-002
 1.000000e-002 1.000000e-002 1.000000e-002 1.000000e-002 1.000000e-002 1.000000e-002 1.000000e-002 1.000000e-002 1.000000e-002 1.000000e-002
 1.000000e-002 1.000000e-002 1.000000e-002 1.000000e-002 1.000000e-002 1.000000e-002 1.000000e-002 1.000000e-002 1.000000e-002 1.000000e-002
 1.000000e-002 1.000000e-002 1.000000e-002 1.000000e-002 1.000000e-002 1.000000e-002 1.000000e-002 1.000000e-002 1.000000e-002 1.000000e-002
 1.000000e-002 1.000000e-002 1.000000e-002 1.000000e-002 1.000000e-002 1.000000e-002 1.000000e-002 1.000000e-002 1.000000e-002 1.000000e-002
 1.000000e-002 1.000000e-002 1.000000e-002 1.000000e-002 1.000000e-002 1.000000e-002 1.000000e-002 1.000000e-002 1.000000e-002 1.000000e-002
 1.000000e-002 1.000000e-002 1.000000e-002 1.000000e-002 1.000000e-002 1.000000e-002 1.000000e-002 1.000000e-002 1.000000e-002 1.000000e-002
 1.000000e-002 1.000000e-002 1.000000e-002 1.000000e-002 1.000000e-002 1.000000e-002 1.000000e-002 1.000000e-002 1.000000e-002 1.000000e-002
 1.000000e-002 1.000000e-002 1.000000e-002 1.000000e-002 1.000000e-002 1.000000e-002 1.000000e-002 1.000000e-002 1.000000e-002 1.000000e-002
 1.000000e-002 1.000000e-002 1.000000e-002 1.000000e-002 1.000000e-002 1.000000e-002 1.000000e-002 1.000000e-002 1.000000e-002 1.000000e-002
 1.000000e-002 1.000000e-002 1.000000e-002 1.000000e-002 1.000000e-002 1.000000e-002 1.000000e-002 1.000000e-002 1.000000e-002 1.000000e-002
 1.000000e-002 1.000000e-002 1.000000e-002 1.000000e-002 1.000000e-002 1.000000e-002 1.000000e-002 1.000000e-002 1.000000e-002 1.000000e-002
 1.000000e-002 1.000000e-002 1.000000e-002 1.000000e-002 1.000000e-002 1.000000e-002 1.000000e-002 1.000000e-002 1.000000e-002 1.000000e-002
 1.000000e-002 1.000000e-002 1.000000e-002 1.000000e-002 1.000000e-002 1.000000e-002 1.000000e-002 1.000000e-002 1.000000e-002 1.000000e-002
 1.000000e-002 1.000000e-002 1.000000e-002 1.000000e-002 1.000000e-002 1.000000e-002 1.000000e-002 1.000000e-002 1.000000e-002 1.000000e-002
 1.000000e-002 1.000000e-002 1.000000e-002 1.000000e-002 1.000000e-002 1.000000e-002 1.000000e-002 1.000000e-002 1.000000e-002 1.000000e-002
 1.000000e-002 1.000000e-002 1.000000e-002 1.000000e-002 1.000000e-002 1.000000e-002 1.000000e-002 1.000000e-002 1.000000e-002 1.000000e-002
 1.000000e-002 1.000000e-002 1.000000e-002 1.000000e-002 1.000000e-002 1.000000e-002 1.000000e-002 1.000000e-002 1.000000e-002 1.000000e-002
 1.000000e-002 1.000000e-002 1.000000e-002 1.000000e-002 1.000000e-002 1.000000e-002 1.000000e-002 1.000000e-002 1.000000e-002 1.000000e-002
 1.000000e-002 1.000000e-002 1.000000e-002 1.000000e-002 1.000000e-002 1.000000e-002 1.000000e-002 1.000000e-002 1.000000e-002 1.000000e-002
 1.000000e-002 1.000000e-002 1.000000e-002 1.000000e-002 1.000000e-002 1.000000e-002 1.000000e-002 1.000000e-002 1.000000e-002 1.000000e-002
 1.000000e-002 1.000000e-002 1.000000e-002 1.000000e-002 1.000000e-002 1.000000e-002 1.000000e-002 1.000000e-002 1.000000e-002 1.000000e-002
 1.000000e-002 1.000000e-002 1.000000e-002 1.000000e-002 1.000000e-002 1.000000e-002 1.000000e-002 1.000000e-002 1.000000e-002 1.000000e-002
 1.000000e-002 1.000000e-002 1.000000e-002 1.000000e-002 1.000000e-002 1.000000e-002 1.000000e-002 1.000000e-002 1.000000e-002 1.000000e-002
 1.000000e-002 1.000000e-002 1.000000e-002 1.000000e-002 1.000000e-002 1.000000e-002 1.000000e-002 1.000000e-002 1.000000e-002 1.000000e-002
 1.000000e-002 1.000000e-002 1.000000e-002 1.000000e-002 1.000000e-002 1.000000e-002 1.000000e-002 1.000000e-002 1.000000e-002 1.000000e-002
 1.000000e-002 1.000000e-002 1.000000e-002 1.000000e-002 1.000000e-002 1.000000e-002 1.000000e-002 1.000000e-002 1.000000e-002 1.000000e-002
 1.000000e-002 1.000000e-002 1.000000e-002 1.000000e-002 1.000000e-002 1.000000e-002 1.000000e-002 1.000000e-002 1.000000e-002 1.000000e-002
 1.000000e-002 1.000000e-002 1.000000e-002 1.000000e-002 1.000000e-002 1.000000e-002 1.000000e-002 1.000000e-002 1.000000e-002 1.000000e-002
 1.000000e-002 1.000000e-002 1.000000e-002 1.000000e-002 1.000000e-002 1.000000e-002 1.000000e-002 1.000000e-002 1.000000e-002 1.000000e-002
 1.000000e-002 1.000000e-002 1.000000e-002 1.000000e-002 1.000000e-002 1.000000e-002 1.000000e-002 1.000000e-002 1.000000e-002 1.000000e-002
 1.000000e-002 1.000000e-002 1.000000e-002 1.000000e-002 1.000000e-002 1.000000e-002 1.000000e-002 1.000000e-002 1.000000e-002 1.000000e-002
 1.000000e-002 1.000000e-002 1.000000e-002 1.000000e-002 1.000000e-002 1.000000e-002 1.000000e-002 1.000000e-002 1.000000e-002 1.000000e-002
 1.000000e-002 1.000000e-002 1.000000e-002 1.000000e-002 1.000000e-002 1.000000e-002 1.000000e-002 1.000000e-002 1.000000e-002 1.000000e-002
 1.000000e-002 1.000000e-002 1.000000e-002 1.000000e-002 1.000000e-002 1.000000e-002 1.000000e-002 1.000000e-002 1.000000e-002 1.000000e-002
 1.000000e-002 1.000000e-002 1.000000e-002 1.000000e-002 1.000000e-002 1.000000e-002 1.000000e-002 1.000000e-002 1.000000e-002 1.000000e-002
 1.000000e-002 1.000000e-002 1.000000e-002 1.000000e-002 1.000000e-002 1.000000e-002 1.000000e-002 1.000000e-002 1.000000e-002 1.000000e-002
 1.000000e-002 1.000000e-002 1.000000e-002 1.000000e-002 1.000000e-002 1.000000e-002 1.000000e-002 1.000000e-002 1.000000e-002 1.000000e-002
 1.000000e-002 1.000000e-002 1.000000e-002 1.000000e-002 1.000000e-002 1.000000e-002 1.000000e-002 1.000000e-002 1.000000e-002 1.000000e-002
 1.000000e-002 1.000000e-002 1.000000e-002 1.000000e-002 1.000000e-002 1.000000e-002 1.000000e-002 1.000000e-002 1.000000e-002 1.000000e-002
 1.000000e-002 1.000000e-002 1.000000e-002 1.000000e-002 1.000000e-002 1.000000e-002 1.000000e-002 1.000000e-002 1.000000e-002 1.000000e-002
 1.000000e-002 1.000000e-002 1.000000e-002 1.000000e-002 1.000000e-002 1.000000e-002 1.000000e-002 1.000000e-002 1.000000e-002 1.000000e-002
 1.000000e-002 1.000000e-002 1.000000e-002 1.000000e-002 1.000000e-002 1.000000e-002 1.000000e-002 1.000000e-002 1.000000e-002 1.000000e-002
 1.000000e-002 1.000000e-002 1.000000e-002 1.000000e-002 1.000000e-002 1.000000e-002 1.000000e-002 1.000000e-002 1.000000e-002 1.000000e-002
 1.000000e-002 1.000000e-002 1.000000e-002 1.000000e-002 1.000000e-002 1.000000e-002 1.000000e-002 1.000000e-002 1.000000e-002 1.000000e-002
 1.000000e-002 1.000000e-002 1.000000e-002 1.000000e-002 1.000000e-002 1.000000e-002 1.000000e-002 1.000000e-002 1.000000e-002 1.000000e-002
 1.000000e-002 1.000000e-002 1.000000e-002 1.000000e-002 1.000000e-002 1.000000e-002 1.000000e-002 1.000000e-002 1.000000e-002 1.000000e-002
 1.000000e-002 1.000000e-002 1.000000e-002 1.000000e-002 1.000000e-002 1.000000e-002 1.000000e-002 1.000000e-002 1.000000e-002 1.000000e-002
 1.000000e-002 1.000000e-002 1.000000e-002 1.000000e-002 1.000000e-002 1.000000e-002 1.000000e-002 1.000000e-002 1.000000e-002 1.000000e-002
 1.000000e-002 1.000000e-002 1.000000e-002 1.000000e-002 1.000000e-002 1.000000e-002 1.000000e-002 1.000000e-002 1.000000e-002 1.000000e-002
 1.000000e-002 1.000000e-002 1.000000e-002 1.000000e-002 1.000000e-002 1.000000e-002 1.000000e-002 1.000000e-002 1.000000e-002 1.000000e-002
 1.000000e-002 1.000000e-002 1.000000e-002 1.000000e-002 1.000000e-002 1.000000e-002 1.000000e-002 1.000000e-002 1.000000e-002 1.000000e-002
 1.000000e-002 1.000000e-002 1.000000e-002 1.000000e-002 1.000000e-002 1.000000e-002 1.000000e-002 1.000000e-002 1.000000e-002 1.000000e-002
 1.000000e-002 1.000000e-002 1.000000e-002 1.000000e-002 1.000000e-002 1.000000e-002 1.000000e-002 1.000000e-002 1.000000e-002 1.000000e-002
 1.000000e-002 1.000000e-002 1.000000e-002 1.000000e-002 1.000000e-002 1.000000e-002 1.000000e-002 1.000000e-002 1.000000e-002 1.000000e-002
 1.000000e-002 1.000000e-002 1.000000e-002 1.000000e-002 1.000000e-002 1.000000e-002 1.000000e-002 1.000000e-002 1.000000e-002 1.000000e-002
 1.000000e-002 1.000000e-002 1.000000e-002 1.000000e-002 1.000000e-002 1.000000e-002 1.000000e-002 1.000000e-002 1.000000e-002 1.000000e-002
 1.000000e-002 1.000000e-002 1.000000e-002 1.000000e-002 1.000000e-002 1.000000e-002 1.000000e-002 1.000000e-002 1.000000e-002 1.000000e-002
 1.000000e-002 1.000000e-002 1.000000e-002 1.000000e-002 1.000000e-002 1.000000e-002 1.000000e-002 1.000000e-002 1.000000e-002 1.000000e-002
 1.000000e-002 1.000000e-002 1.000000e-002 1.000000e-002 1.000000e-002 1.000000e-002 1.000000e-002 1.000000e-002 1.000000e-002 1.000000e-002
 1.000000e-002 1.000000e-002 1.000000e-002 1.000000e-002 1.000000e-002 1.000000e-002 1.000000e-002 1.000000e-002 1.000000e-002 1.000000e-002
 1.000000e-002 1.000000e-002 1.000000e-002 1.000000e-002 1.000000e-002 1.000000e-002 1.000000e-002 1.000000e-002 1.000000e-002 1.000000e-002
 1.000000e-002 1.000000e-002 1.000000e-002 1.000000e-002 1.000000e-002 1.000000e-002 1.000000e-002 1.000000e-002 1.000000e-002 1.000000e-002
 1.000000e-002 1.000000e-002 1.000000e-002 1.000000e-002 1.000000e-002 1.000000e-002 1.000000e-002 1.000000e-002 1.000000e-002 1.000000e-002
 1.000000e-002 1.000000e-002 1.000000e-002 1.000000e-002 1.000000e-002 1.000000e-002 1.000000e-002 1.000000e-002 1.000000e-002 1.000000e-002
 1.000000e-002 1.000000e-002 1.000000e-002 1.000000e-002 1.000000e-002 1.000000e-002 1.000000e-002 1.000000e-002 1.000000e-002 1.000000e-002
 1.000000e-002 1.000000e-002 1.000000e-002 1.000000e-002 1.000000e-002 1.000000e-002 1.000000e-002 1.000000e-002 1.000000e-002 1.000000e-002
 1.000000e-002 1.000000e-002 1.000000e-002 1.000000e-002 1.000000e-002 1.000000e-002 1.000000e-002 1.000000e-002 1.000000e-002 1.000000e-002
 1.000000e-002 1.000000e-002 1.000000e-002 1.000000e-002 1.000000e-002 1.000000e-002 1.000000e-002 1.000000e-002 1.000000e-002 1.000000e-002
 1.000000e-002 1.000000e-002 1.000000e-002 1.000000e-002 1.000000e-002 1.000000e-002 1.000000e-002 1.000000e-002 1.000000e-002 1.000000e-002
 1.000000e-002 1.000000e-002 1.000000e-002 1.000000e-002 1.000000e-002 1.000000e-002 1.000000e-002 1.000000e-002 1.000000e-002 1.000000e-002
 1.000000e-002 1.000000e-002 1.000000e-002 1.000000e-002 1.000000e-002 1.000000e-002 1.000000e-002 1.000000e-002 1.000000e-002 1.000000e-002
 1.000000e-002 1.000000e-002 1.000000e-002 1.000000e-002 1.000000e-002 1.000000e-002 1.000000e-002 1.000000e-002 1.000000e-002 1.000000e-002
 1.000000e-002 1.000000e-002 1.000000e-002 1.000000e-002 1.000000e-002 1.000000e-002 1.000000e-002 1.000000e-002 1.000000e-002 1.000000e-002
 1.000000e-002 1.000000e-002 1.000000e-002 1.000000e-002 1.000000e-002 1.000000e-002 1.000000e-002 1.000000e-002 1.000000e-002 1.000000e-002
 1.000000e-002 1.000000e-002 1.000000e-002 1.000000e-002 1.000000e-002 1.000000e-002 1.000000e-002 1.000000e-002 1.000000e-002 1.000000e-002
 1.000000e-002 1.000000e-002 1.000000e-002 1.000000e-002 1.000000e-002 1.000000e-002 1.000000e-002 1.000000e-002 1.000000e-002 1.000000e-002
 1.000000e-002 1.000000e-002 1.000000e-002 1.000000e-002 1.000000e-002 1.000000e-002 1.000000e-002 1.000000e-002 1.000000e-002 1.000000e-002
 1.000000e-002 1.000000e-002 1.000000e-002 1.000000e-002 1.000000e-002 1.000000e-002 1.000000e-002 1.000000e-002 1.000000e-002 1.000000e-002
 1.000000e-002 1.000000e-002 1.000000e-002 1.000000e-002 1.000000e-002 1.000000e-002 1.000000e-002 1.000000e-002 1.000000e-002 1.000000e-002
 1.000000e-002 1.000000e-002 1.000000e-002 1.000000e-002 1.000000e-002 1.000000e-002 1.000000e-002 1.000000e-002 1.000000e-002 1.000000e-002
 1.000000e-002 1.000000e-002 1.000000e-002 1.000000e-002 1.000000e-002 1.000000e-002 1.000000e-002 1.000000e-002 1.000000e-002 1.000000e-002
 1.000000e-002 1.000000e-002 1.000000e-002 1.000000e-002 1.000000e-002 1.000000e-002 1.000000e-002 1.000000e-002 1.000000e-002 1.000000e-002
 1.000000e-002 1.000000e-002 1.000000e-002 1.000000e-002 1.000000e-002 1.000000e-002 1.000000e-002 1.000000e-002 1.000000e-002 1.000000e-002
 1.000000e-002 1.000000e-002 1.000000e-002 1.000000e-002 1.000000e-002 1.000000e-002 1.000000e-002 1.000000e-002 1.000000e-002 1.000000e-002
 1.000000e-002 1.000000e-002 1.000000e-002 1.000000e-002 1.000000e-002 1.000000e-002 1.000000e-002 1.000000e-002 1.000000e-002 1.000000e-002
 1.000000e-002 1.000000e-002 1.000000e-002 1.000000e-002 1.000000e-002 1.000000e-002 1.000000e-002 1.000000e-002 1.000000e-002 1.000000e-002
 1.000000e-002 1.000000e-002 1.000000e-002 1.000000e-002 1.000000e-002 1.000000e-002 1.000000e-002 1.000000e-002 1.000000e-002 1.000000e-002
 1.000000e-002 1.000000e-002 1.000000e-002 1.000000e-002 1.000000e-002 1.000000e-002 1.000000e-002 1.000000e-002 1.000000e-002 1.000000e-002
 1.000000e-002 1.000000e-002 1.000000e-002 1.000000e-002 1.000000e-002 1.000000e-002 1.000000e-002 1.000000e-002 1.000000e-002 1.000000e-002
 1.000000e-002 1.000000e-002 1.000000e-002 1.000000e-002 1.000000e-002 1.000000e-002 1.000000e-002 1.000000e-002 1.000000e-002 1.000000e-002
 1.000000e-002 1.000000e-002 1.000000e-002 1.000000e-002 1.000000e-002 1.000000e-002 1.000000e-002 1.000000e-002 1.000000e-002 1.000000e-002
 1.000000e-002 1.000000e-002 1.000000e-002 1.000000e-002 1.000000e-002 1.000000e-002 1.000000e-002 1.000000e-002 1.000000e-002 1.000000e-002
 1.000000e-002 1.000000e-002 1.000000e-002 1.000000e-002 1.000000e-002 1.000000e-002 1.000000e-002 1.000000e-002 1.000000e-002 1.000000e-002
 1.000000e-002 1.000000e-002 1.000000e-002 1.000000e-002 1.000000e-002 1.000000e-002 1.000000e-002 1.000000e-002 1.000000e-002 1.000000e-002
 1.000000e-002 1.000000e-002 1.000000e-002 1.000000e-002 1.000000e-002 1.000000e-002 1.000000e-002 1.000000e-002 1.000000e-002 1.000000e-002
 1.000000e-002 1.000000e-002 1.000000e-002 1.000000e-002 1.000000e-002 1.000000e-002 1.000000e-002 1.000000e-002 1.000000e-002 1.000000e-002
 1.000000e-002 1.000000e-002 1.000000e-002 1.000000e-002 1.000000e-002 1.000000e-002 1.000000e-002 1.000000e-002 1.000000e-002 1.000000e-002
 1.000000e-002 1.000000e-002 1.000000e-002 1.000000e-002 1.000000e-002 1.000000e-002 1.000000e-002 1.000000e-002 1.000000e-002 1.000000e-002
 1.000000e-002 1.000000e-002 1.000000e-002 1.000000e-002 1.000000e-002 1.000000e-002 1.000000e-002 1.000000e-002 1.000000e-002 1.000000e-002
 1.000000e-002 1.000000e-002 1.000000e-002 1.000000e-002 1.000000e-002 1.000000e-002 1.000000e-002 1.000000e-002 1.000000e-002 1.000000e-002
 1.000000e-002 1.000000e-002 1.000000e-002 1.000000e-002 1.000000e-002 1.000000e-002 1.000000e-002 1.000000e-002 1.000000e-002 1.000000e-002
 1.000000e-002 1.000000e-002 1.000000e-002 1.000000e-002 1.000000e-002 1.000000e-002 1.000000e-002 1.000000e-002 1.000000e-002 1.000000e-002
 1.000000e-002 1.000000e-002 1.000000e-002 1.000000e-002 1.000000e-002 1.000000e-002 1.000000e-002 1.000000e-002 1.000000e-002 1.000000e-002
 1.000000e-002 1.000000e-002 1.000000e-002 1.000000e-002 1.000000e-002 1.000000e-002 1.000000e-002 1.000000e-002 1.000000e-002 1.000000e-002
 1.000000e-002 1.000000e-002 1.000000e-002 1.000000e-002 1.000000e-002 1.000000e-002 1.000000e-002 1.000000e-002 1.000000e-002 1.000000e-002
 1.000000e-002 1.000000e-002 1.000000e-002 1.000000e-002 1.000000e-002 1.000000e-002 1.000000e-002 1.000000e-002 1.000000e-002 1.000000e-002
 1.000000e-002 1.000000e-002 1.000000e-002 1.000000e-002 1.000000e-002 1.000000e-002 1.000000e-002 1.000000e-002 1.000000e-002 1.000000e-002
 1.000000e-002 1.000000e-002 1.000000e-002 1.000000e-002 1.000000e-002 1.000000e-002 1.000000e-002 1.000000e-002 1.000000e-002 1.000000e-002
 1.000000e-002 1.000000e-002 1.000000e-002 1.000000e-002 1.000000e-002 1.000000e-002 1.000000e-002 1.000000e-002 1.000000e-002 1.000000e-002
 1.000000e-002 1.000000e-002 1.000000e-002 1.000000e-002 1.000000e-002 1.000000e-002 1.000000e-002 1.000000e-002 1.000000e-002 1.000000e-002
 1.000000e-002 1.000000e-002 1.000000e-002 1.000000e-002 1.000000e-002 1.000000e-002 1.000000e-002 1.000000e-002 1.000000e-002 1.000000e-002
 1.000000e-002 1.000000e-002 1.000000e-002 1.000000e-002 1.000000e-002 1.000000e-002 1.000000e-002 1.000000e-002 1.000000e-002 1.000000e-002
 1.000000e-002 1.000000e-002 1.000000e-002 1.000000e-002 1.000000e-002 1.000000e-002 1.000000e-002 1.000000e-002 1.000000e-002 1.000000e-002
 1.000000e-002 1.000000e-002 1.000000e-002 1.000000e-002 1.000000e-002 1.000000e-002 1.000000e-002 1.000000e-002 1.000000e-002 1.000000e-002
 1.000000e-002 1.000000e-002 1.000000e-002 1.000000e-002 1.000000e-002 1.000000e-002 1.000000e-002 1.000000e-002 1.000000e-002 1.000000e-002
 1.000000e-002 1.000000e-002 1.000000e-002 1.000000e-002 1.000000e-002 1.000000e-002 1.000000e-002 1.000000e-002 1.000000e-002 1.000000e-002
 1.000000e-002 1.000000e-002 1.000000e-002 1.000000e-002 1.000000e-002 1.000000e-002 1.000000e-002 1.000000e-002 1.000000e-002 1.000000e-002
 1.000000e-002 1.000000e-002 1.000000e-002 1.000000e-002 1.000000e-002 1.000000e-002 1.000000e-002 1.000000e-002 1.000000e-002 1.000000e-002
 1.000000e-002 1.000000e-002 1.000000e-002 1.000000e-002 1.000000e-002 1.000000e-002 1.000000e-002 1.000000e-002 1.000000e-002 1.000000e-002
 1.000000e-002 1.000000e-002 1.000000e-002 1.000000e-002 1.000000e-002 1.000000e-002 1.000000e-002 1.000000e-002 1.000000e-002 1.000000e-002
 1.000000e-002 1.000000e-002 1.000000e-002 1.000000e-002 1.000000e-002 1.000000e-002 1.000000e-002 1.000000e-002 1.000000e-002 1.000000e-002
 1.000000e-002 1.000000e-002 1.000000e-002 1.000000e-002 1.000000e-002 1.000000e-002 1.000000e-002 1.000000e-002 1.000000e-002 1.000000e-002
 1.000000e-002 1.000000e-002 1.000000e-002 1.000000e-002 1.000000e-002 1.000000e-002 1.000000e-002 1.000000e-002 1.000000e-002 1.000000e-002
 1.000000e-002 1.000000e-002 1.000000e-002 1.000000e-002 1.000000e-002 1.000000e-002 1.000000e-002 1.000000e-002 1.000000e-002 1.000000e-002
 1.000000e-002 1.000000e-002 1.000000e-002 1.000000e-002 1.000000e-002 1.000000e-002 1.000000e-002 1.000000e-002 1.000000e-002 1.000000e-002
 1.000000e-002 1.000000e-002 1.000000e-002 1.000000e-002 1.000000e-002 1.000000e-002 1.000000e-002 1.000000e-002 1.000000e-002 1.000000e-002
 1.000000e-002 1.000000e-002 1.000000e-002 1.000000e-002 1.000000e-002 1.000000e-002 1.000000e-002 1.000000e-002 1.000000e-002 1.000000e-002
 1.000000e-002 1.000000e-002 1.000000e-002 1.000000e-002 1.000000e-002 1.000000e-002 1.000000e-002 1.000000e-002 1.000000e-002 1.000000e-002
 1.000000e-002 1.000000e-002 1.000000e-002 1.000000e-002 1.000000e-002 1.000000e-002 1.000000e-002 1.000000e-002 1.000000e-002 1.000000e-002
 1.000000e-002 1.000000e-002 1.000000e-002 1.000000e-002 1.000000e-002 1.000000e-002 1.000000e-002 1.000000e-002 1.000000e-002 1.000000e-002
 1.000000e-002 1.000000e-002 1.000000e-002 1.000000e-002 1.000000e-002 1.000000e-002 1.000000e-002 1.000000e-002 1.000000e-002 1.000000e-002
 1.000000e-002 1.000000e-002 1.000000e-002 1.000000e-002 1.000000e-002 1.000000e-002 1.000000e-002 1.000000e-002 1.000000e-002 1.000000e-002
 1.000000e-002 1.000000e-002 1.000000e-002 1.000000e-002 1.000000e-002 1.000000e-002 1.000000e-002 1.000000e-002 1.000000e-002 1.000000e-002
 1.000000e-002 1.000000e-002 1.000000e-002 1.000000e-002 1.000000e-002 1.000000e-002 1.000000e-002 1.000000e-002 1.000000e-002 1.000000e-002
 1.000000e-002 1.000000e-002 1.000000e-002 1.000000e-002 1.000000e-002 1.000000e-002 1.000000e-002 1.000000e-002 1.000000e-002 1.000000e-002
 1.000000e-002 1.000000e-002 1.000000e-002 1.000000e-002 1.000000e-002 1.000000e-002 1.000000e-002 1.000000e-002 1.000000e-002 1.000000e-002
 1.000000e-002 1.000000e-002 1.000000e-002 1.000000e-002 1.000000e-002 1.000000e-002 1.000000e-002 1.000000e-002 1.000000e-002 1.000000e-002
 1.000000e-002 1.000000e-002 1.000000e-002 1.000000e-002 1.000000e-002 1.000000e-002 1.000000e-002 1.000000e-002 1.000000e-002 1.000000e-002
 1.000000e-002 1.000000e-002 1.000000e-002 1.000000e-002 1.000000e-002 1.000000e-002 1.000000e-002 1.000000e-002 1.000000e-002 1.000000e-002
 1.000000e-002 1.000000e-002 1.000000e-002 1.000000e-002 1.000000e-002 1.000000e-002 1.000000e-002 1.000000e-002 1.000000e-002 1.000000e-002
 1.000000e-002 1.000000e-002 1.000000e-002 1.000000e-002 1.000000e-002 1.000000e-002 1.000000e-002 1.000000e-002 1.000000e-002 1.000000e-002
 1.000000e-002 1.000000e-002 1.000000e-002 1.000000e-002 1.000000e-002 1.000000e-002 1.000000e-002 1.000000e-002 1.000000e-002 1.000000e-002
 1.000000e-002 1.000000e-002 1.000000e-002 1.000000e-002 1.000000e-002 1.000000e-002 1.000000e-002 1.000000e-002 1.000000e-002 1.000000e-002
 1.000000e-002 1.000000e-002 1.000000e-002 1.000000e-002 1.000000e-002 1.000000e-002 1.000000e-002 1.000000e-002 1.000000e-002 1.000000e-002
 1.000000e-002 1.000000e-002 1.000000e-002 1.000000e-002 1.000000e-002 1.000000e-002 1.000000e-002 1.000000e-002 1.000000e-002 1.000000e-002
 1.000000e-002 1.000000e-002 1.000000e-002 1.000000e-002 1.000000e-002 1.000000e-002 1.000000e-002 1.000000e-002 1.000000e-002 1.000000e-002
 1.000000e-002 1.000000e-002 1.000000e-002 1.000000e-002 1.000000e-002 1.000000e-002 1.000000e-002 1.000000e-002 1.000000e-002 1.000000e-002
 1.000000e-002 1.000000e-002 1.000000e-002 1.000000e-002 1.000000e-002 1.000000e-002 1.000000e-002 1.000000e-002 1.000000e-002 1.000000e-002
 1.000000e-002 1.000000e-002 1.000000e-002 1.000000e-002 1.000000e-002 1.000000e-002 1.000000e-002 1.000000e-002 1.000000e-002 1.000000e-002
 1.000000e-002 1.000000e-002 1.000000e-002 1.000000e-002 1.000000e-002 1.000000e-002 1.000000e-002 1.000000e-002 1.000000e-002 1.000000e-002
 1.000000e-002 1.000000e-002 1.000000e-002 1.000000e-002 1.000000e-002 1.000000e-002 1.000000e-002 1.000000e-002 1.000000e-002 1.000000e-002
 1.000000e-002 1.000000e-002 1.000000e-002 1.000000e-002 1.000000e-002 1.000000e-002 1.000000e-002 1.000000e-002 1.000000e-002 1.000000e-002
 1.000000e-002 1.000000e-002 1.000000e-002 1.000000e-002 1.000000e-002 1.000000e-002 1.000000e-002 1.000000e-002 1.000000e-002 1.000000e-002
 1.000000e-002 1.000000e-002 1.000000e-002 1.000000e-002 1.000000e-002 1.000000e-002 1.000000e-002 1.000000e-002 1.000000e-002 1.000000e-002
 1.000000e-002 1.000000e-002 1.000000e-002 1.000000e-002 1.000000e-002 1.000000e-002 1.000000e-002 1.000000e-002 1.000000e-002 1.000000e-002
 1.000000e-002 1.000000e-002 1.000000e-002 1.000000e-002 1.000000e-002 1.000000e-002 1.000000e-002 1.000000e-002 1.000000e-002 1.000000e-002
 1.000000e-002 1.000000e-002 1.000000e-002 1.000000e-002 1.000000e-002 1.000000e-002 1.000000e-002 1.000000e-002 1.000000e-002 1.000000e-002
 1.000000e-002 1.000000e-002 1.000000e-002 1.000000e-002 1.000000e-002 1.000000e-002 1.000000e-002 1.000000e-002 1.000000e-002 1.000000e-002
 1.000000e-002 1.000000e-002 1.000000e-002 1.000000e-002 1.000000e-002 1.000000e-002 1.000000e-002 1.000000e-002 1.000000e-002 1.000000e-002
 1.000000e-002 1.000000e-002 1.000000e-002 1.000000e-002 1.000000e-002 1.000000e-002 1.000000e-002 1.000000e-002 1.000000e-002 1.000000e-002
 1.000000e-002 1.000000e-002 1.000000e-002 1.000000e-002 1.000000e-002 1.000000e-002 1.000000e-002 1.000000e-002 1.000000e-002 1.000000e-002
 1.000000e-002 1.000000e-002 1.000000e-002 1.000000e-002 1.000000e-002 1.000000e-002 1.000000e-002 1.000000e-002 1.000000e-002 1.000000e-002
 1.000000e-002 1.000000e-002 1.000000e-002 1.000000e-002 1.000000e-002 1.000000e-002 1.000000e-002 1.000000e-002 1.000000e-002 1.000000e-002
 1.000000e-002 1.000000e-002 1.000000e-002 1.000000e-002 1.000000e-002 1.000000e-002 1.000000e-002 1.000000e-002 1.000000e-002 1.000000e-002
 1.000000e-002 1.000000e-002 1.000000e-002 1.000000e-002 1.000000e-002 1.000000e-002 1.000000e-002 1.000000e-002 1.000000e-002 1.000000e-002
 1.000000e-002 1.000000e-002 1.000000e-002 1.000000e-002 1.000000e-002 1.000000e-002 1.000000e-002 1.000000e-002 1.000000e-002 1.000000e-002
 1.000000e-002 1.000000e-002 1.000000e-002 1.000000e-002 1.000000e-002 1.000000e-002 1.000000e-002 1.000000e-002 1.000000e-002 1.000000e-002
 1.000000e-002 1.000000e-002 1.000000e-002 1.000000e-002 1.000000e-002 1.000000e-002 1.000000e-002 1.000000e-002 1.000000e-002 1.000000e-002