# MODFLOW-USGs Constant-Head Boundary Package (CHD)
       596
 596
 1   10.000000  10.000000 0.000000e+000
 2   10.000000  10.000000 0.000000e+000
 3   10.000000  10.000000 0.000000e+000
 4   10.000000  10.000000 0.000000e+000
 5   10.000000  10.000000 0.000000e+000
 6   10.000000  10.000000 0.000000e+000
 7   10.000000  10.000000 0.000000e+000
 8   10.000000  10.000000 0.000000e+000
 9   10.000000  10.000000 0.000000e+000
 10   10.000000  10.000000 0.000000e+000
 11   10.000000  10.000000 0.000000e+000
 12   10.000000  10.000000 0.000000e+000
 13   10.000000  10.000000 0.000000e+000
 14   10.000000  10.000000 0.000000e+000
 15   10.000000  10.000000 0.000000e+000
 16   10.000000  10.000000 0.000000e+000
 17   10.000000  10.000000 0.000000e+000
 18   10.000000  10.000000 0.000000e+000
 19   10.000000  10.000000 0.000000e+000
 20   10.000000  10.000000 0.000000e+000
 21   10.000000  10.000000 0.000000e+000
 22   10.000000  10.000000 0.000000e+000
 23   10.000000  10.000000 0.000000e+000
 24   10.000000  10.000000 0.000000e+000
 25   10.000000  10.000000 0.000000e+000
 26   10.000000  10.000000 0.000000e+000
 27   10.000000  10.000000 0.000000e+000
 28   10.000000  10.000000 0.000000e+000
 29   10.000000  10.000000 0.000000e+000
 30   10.000000  10.000000 0.000000e+000
 31   10.000000  10.000000 0.000000e+000
 32   10.000000  10.000000 0.000000e+000
 33   10.000000  10.000000 0.000000e+000
 34   10.000000  10.000000 0.000000e+000
 35   10.000000  10.000000 0.000000e+000
 36   10.000000  10.000000 0.000000e+000
 37   10.000000  10.000000 0.000000e+000
 38   10.000000  10.000000 0.000000e+000
 39   10.000000  10.000000 0.000000e+000
 40   10.000000  10.000000 0.000000e+000
 41   10.000000  10.000000 0.000000e+000
 42   10.000000  10.000000 0.000000e+000
 43   10.000000  10.000000 0.000000e+000
 44   10.000000  10.000000 0.000000e+000
 45   10.000000  10.000000 0.000000e+000
 46   10.000000  10.000000 0.000000e+000
 47   10.000000  10.000000 0.000000e+000
 48   10.000000  10.000000 0.000000e+000
 49   10.000000  10.000000 0.000000e+000
 50   10.000000  10.000000 0.000000e+000
 51   10.000000  10.000000 0.000000e+000
 52   10.000000  10.000000 0.000000e+000
 53   10.000000  10.000000 0.000000e+000
 54   10.000000  10.000000 0.000000e+000
 55   10.000000  10.000000 0.000000e+000
 56   10.000000  10.000000 0.000000e+000
 57   10.000000  10.000000 0.000000e+000
 58   10.000000  10.000000 0.000000e+000
 59   10.000000  10.000000 0.000000e+000
 60   10.000000  10.000000 0.000000e+000
 61   10.000000  10.000000 0.000000e+000
 62   10.000000  10.000000 0.000000e+000
 63   10.000000  10.000000 0.000000e+000
 64   10.000000  10.000000 0.000000e+000
 65   10.000000  10.000000 0.000000e+000
 66   10.000000  10.000000 0.000000e+000
 67   10.000000  10.000000 0.000000e+000
 68   10.000000  10.000000 0.000000e+000
 69   10.000000  10.000000 0.000000e+000
 70   10.000000  10.000000 0.000000e+000
 71   10.000000  10.000000 0.000000e+000
 72   10.000000  10.000000 0.000000e+000
 73   10.000000  10.000000 0.000000e+000
 74   10.000000  10.000000 0.000000e+000
 75   10.000000  10.000000 0.000000e+000
 76   10.000000  10.000000 0.000000e+000
 77   10.000000  10.000000 0.000000e+000
 78   10.000000  10.000000 0.000000e+000
 79   10.000000  10.000000 0.000000e+000
 80   10.000000  10.000000 0.000000e+000
 81   10.000000  10.000000 0.000000e+000
 82   10.000000  10.000000 0.000000e+000
 83   10.000000  10.000000 0.000000e+000
 84   10.000000  10.000000 0.000000e+000
 85   10.000000  10.000000 0.000000e+000
 86   10.000000  10.000000 0.000000e+000
 87   10.000000  10.000000 0.000000e+000
 88   10.000000  10.000000 0.000000e+000
 89   10.000000  10.000000 0.000000e+000
 90   10.000000  10.000000 0.000000e+000
 91   10.000000  10.000000 0.000000e+000
 92   10.000000  10.000000 0.000000e+000
 93   10.000000  10.000000 0.000000e+000
 94   10.000000  10.000000 0.000000e+000
 95   10.000000  10.000000 0.000000e+000
 96   10.000000  10.000000 0.000000e+000
 97   10.000000  10.000000 0.000000e+000
 98   10.000000  10.000000 0.000000e+000
 99   10.000000  10.000000 0.000000e+000
 100   10.000000  10.000000 0.000000e+000
 9329   30.000000  30.000000 0.000000e+000
 9330   30.000000  30.000000 0.000000e+000
 9331   30.000000  30.000000 0.000000e+000
 9332   30.000000  30.000000 0.000000e+000
 9333   30.000000  30.000000 0.000000e+000
 9334   30.000000  30.000000 0.000000e+000
 9335   30.000000  30.000000 0.000000e+000
 9336   30.000000  30.000000 0.000000e+000
 9337   30.000000  30.000000 0.000000e+000
 9338   30.000000  30.000000 0.000000e+000
 9339   30.000000  30.000000 0.000000e+000
 9340   30.000000  30.000000 0.000000e+000
 9341   30.000000  30.000000 0.000000e+000
 9342   30.000000  30.000000 0.000000e+000
 9343   30.000000  30.000000 0.000000e+000
 9344   30.000000  30.000000 0.000000e+000
 9345   30.000000  30.000000 0.000000e+000
 9346   30.000000  30.000000 0.000000e+000
 9347   30.000000  30.000000 0.000000e+000
 9348   30.000000  30.000000 0.000000e+000
 9349   30.000000  30.000000 0.000000e+000
 9350   30.000000  30.000000 0.000000e+000
 9351   30.000000  30.000000 0.000000e+000
 9352   30.000000  30.000000 0.000000e+000
 9353   30.000000  30.000000 0.000000e+000
 9354   30.000000  30.000000 0.000000e+000
 9355   30.000000  30.000000 0.000000e+000
 9356   30.000000  30.000000 0.000000e+000
 9357   30.000000  30.000000 0.000000e+000
 9358   30.000000  30.000000 0.000000e+000
 9359   30.000000  30.000000 0.000000e+000
 9360   30.000000  30.000000 0.000000e+000
 9361   30.000000  30.000000 0.000000e+000
 9362   30.000000  30.000000 0.000000e+000
 9363   30.000000  30.000000 0.000000e+000
 9364   30.000000  30.000000 0.000000e+000
 9365   30.000000  30.000000 0.000000e+000
 9366   30.000000  30.000000 0.000000e+000
 9367   30.000000  30.000000 0.000000e+000
 9368   30.000000  30.000000 0.000000e+000
 9369   30.000000  30.000000 0.000000e+000
 9370   30.000000  30.000000 0.000000e+000
 9371   30.000000  30.000000 0.000000e+000
 9372   30.000000  30.000000 0.000000e+000
 9373   30.000000  30.000000 0.000000e+000
 9374   30.000000  30.000000 0.000000e+000
 9375   30.000000  30.000000 0.000000e+000
 9376   30.000000  30.000000 0.000000e+000
 9377   30.000000  30.000000 0.000000e+000
 9378   30.000000  30.000000 0.000000e+000
 9379   30.000000  30.000000 0.000000e+000
 9380   30.000000  30.000000 0.000000e+000
 9381   30.000000  30.000000 0.000000e+000
 9382   30.000000  30.000000 0.000000e+000
 9383   30.000000  30.000000 0.000000e+000
 9384   30.000000  30.000000 0.000000e+000
 9385   30.000000  30.000000 0.000000e+000
 9386   30.000000  30.000000 0.000000e+000
 9387   30.000000  30.000000 0.000000e+000
 9388   30.000000  30.000000 0.000000e+000
 9389   30.000000  30.000000 0.000000e+000
 9390   30.000000  30.000000 0.000000e+000
 9391   30.000000  30.000000 0.000000e+000
 9392   30.000000  30.000000 0.000000e+000
 9393   30.000000  30.000000 0.000000e+000
 9394   30.000000  30.000000 0.000000e+000
 9395   30.000000  30.000000 0.000000e+000
 9396   30.000000  30.000000 0.000000e+000
 9397   30.000000  30.000000 0.000000e+000
 9398   30.000000  30.000000 0.000000e+000
 9399   30.000000  30.000000 0.000000e+000
 9400   30.000000  30.000000 0.000000e+000
 9401   30.000000  30.000000 0.000000e+000
 9402   30.000000  30.000000 0.000000e+000
 9403   30.000000  30.000000 0.000000e+000
 9404   30.000000  30.000000 0.000000e+000
 9405   30.000000  30.000000 0.000000e+000
 9406   30.000000  30.000000 0.000000e+000
 9407   30.000000  30.000000 0.000000e+000
 9408   30.000000  30.000000 0.000000e+000
 9409   30.000000  30.000000 0.000000e+000
 9410   30.000000  30.000000 0.000000e+000
 9411   30.000000  30.000000 0.000000e+000
 9412   30.000000  30.000000 0.000000e+000
 9413   30.000000  30.000000 0.000000e+000
 9414   30.000000  30.000000 0.000000e+000
 9415   30.000000  30.000000 0.000000e+000
 9416   30.000000  30.000000 0.000000e+000
 9417   30.000000  30.000000 0.000000e+000
 9418   30.000000  30.000000 0.000000e+000
 9419   30.000000  30.000000 0.000000e+000
 9420   30.000000  30.000000 0.000000e+000
 9421   30.000000  30.000000 0.000000e+000
 9422   30.000000  30.000000 0.000000e+000
 9423   30.000000  30.000000 0.000000e+000
 9424   30.000000  30.000000 0.000000e+000
 9425   30.000000  30.000000 0.000000e+000
 9426   30.000000  30.000000 0.000000e+000
 9427   30.000000  30.000000 0.000000e+000
 9428   30.000000  30.000000 0.000000e+000
 11717   60.000000  60.000000 0.000000e+000
 11718   60.000000  60.000000 0.000000e+000
 11719   60.000000  60.000000 0.000000e+000
 11720   60.000000  60.000000 0.000000e+000
 11721   60.000000  60.000000 0.000000e+000
 11722   60.000000  60.000000 0.000000e+000
 11723   60.000000  60.000000 0.000000e+000
 11724   60.000000  60.000000 0.000000e+000
 11725   60.000000  60.000000 0.000000e+000
 11726   60.000000  60.000000 0.000000e+000
 11727   60.000000  60.000000 0.000000e+000
 11728   60.000000  60.000000 0.000000e+000
 11729   60.000000  60.000000 0.000000e+000
 11730   60.000000  60.000000 0.000000e+000
 11731   60.000000  60.000000 0.000000e+000
 11732   60.000000  60.000000 0.000000e+000
 11733   60.000000  60.000000 0.000000e+000
 11734   60.000000  60.000000 0.000000e+000
 11735   60.000000  60.000000 0.000000e+000
 11736   60.000000  60.000000 0.000000e+000
 11737   60.000000  60.000000 0.000000e+000
 11738   60.000000  60.000000 0.000000e+000
 11739   60.000000  60.000000 0.000000e+000
 11740   60.000000  60.000000 0.000000e+000
 11741   60.000000  60.000000 0.000000e+000
 11742   60.000000  60.000000 0.000000e+000
 11743   60.000000  60.000000 0.000000e+000
 11744   60.000000  60.000000 0.000000e+000
 11745   60.000000  60.000000 0.000000e+000
 11746   60.000000  60.000000 0.000000e+000
 11747   60.000000  60.000000 0.000000e+000
 11748   60.000000  60.000000 0.000000e+000
 11749   60.000000  60.000000 0.000000e+000
 11750   60.000000  60.000000 0.000000e+000
 11751   60.000000  60.000000 0.000000e+000
 11752   60.000000  60.000000 0.000000e+000
 11753   60.000000  60.000000 0.000000e+000
 11754   60.000000  60.000000 0.000000e+000
 11755   60.000000  60.000000 0.000000e+000
 11756   60.000000  60.000000 0.000000e+000
 11757   60.000000  60.000000 0.000000e+000
 11758   60.000000  60.000000 0.000000e+000
 11759   60.000000  60.000000 0.000000e+000
 11760   60.000000  60.000000 0.000000e+000
 11761   60.000000  60.000000 0.000000e+000
 11762   60.000000  60.000000 0.000000e+000
 11763   60.000000  60.000000 0.000000e+000
 11764   60.000000  60.000000 0.000000e+000
 11765   60.000000  60.000000 0.000000e+000
 11766   60.000000  60.000000 0.000000e+000
 11767   60.000000  60.000000 0.000000e+000
 11768   60.000000  60.000000 0.000000e+000
 11769   60.000000  60.000000 0.000000e+000
 11770   60.000000  60.000000 0.000000e+000
 11771   60.000000  60.000000 0.000000e+000
 11772   60.000000  60.000000 0.000000e+000
 11773   60.000000  60.000000 0.000000e+000
 11774   60.000000  60.000000 0.000000e+000
 11775   60.000000  60.000000 0.000000e+000
 11776   60.000000  60.000000 0.000000e+000
 11777   60.000000  60.000000 0.000000e+000
 11778   60.000000  60.000000 0.000000e+000
 11779   60.000000  60.000000 0.000000e+000
 11780   60.000000  60.000000 0.000000e+000
 11781   60.000000  60.000000 0.000000e+000
 11782   60.000000  60.000000 0.000000e+000
 11783   60.000000  60.000000 0.000000e+000
 11784   60.000000  60.000000 0.000000e+000
 11785   60.000000  60.000000 0.000000e+000
 11786   60.000000  60.000000 0.000000e+000
 11787   60.000000  60.000000 0.000000e+000
 11788   60.000000  60.000000 0.000000e+000
 11789   60.000000  60.000000 0.000000e+000
 11790   60.000000  60.000000 0.000000e+000
 11791   60.000000  60.000000 0.000000e+000
 11792   60.000000  60.000000 0.000000e+000
 11793   60.000000  60.000000 0.000000e+000
 11794   60.000000  60.000000 0.000000e+000
 11795   60.000000  60.000000 0.000000e+000
 11796   60.000000  60.000000 0.000000e+000
 11797   60.000000  60.000000 0.000000e+000
 11798   60.000000  60.000000 0.000000e+000
 11799   60.000000  60.000000 0.000000e+000
 11800   60.000000  60.000000 0.000000e+000
 11801   60.000000  60.000000 0.000000e+000
 11802   60.000000  60.000000 0.000000e+000
 11803   60.000000  60.000000 0.000000e+000
 11804   60.000000  60.000000 0.000000e+000
 11805   60.000000  60.000000 0.000000e+000
 11806   60.000000  60.000000 0.000000e+000
 11807   60.000000  60.000000 0.000000e+000
 11808   60.000000  60.000000 0.000000e+000
 11809   60.000000  60.000000 0.000000e+000
 11810   60.000000  60.000000 0.000000e+000
 11811   60.000000  60.000000 0.000000e+000
 11812   60.000000  60.000000 0.000000e+000
 11813   60.000000  60.000000 0.000000e+000
 11814   60.000000  60.000000 0.000000e+000
 11815   60.000000  60.000000 0.000000e+000
 11816   60.000000  60.000000 0.000000e+000
 11817   60.000000  60.000000 0.000000e+000
 11916   60.000000  60.000000 0.000000e+000
 11917   60.000000  60.000000 0.000000e+000
 12016   60.000000  60.000000 0.000000e+000
 12017   60.000000  60.000000 0.000000e+000
 12116   60.000000  60.000000 0.000000e+000
 12117   60.000000  60.000000 0.000000e+000
 12216   60.000000  60.000000 0.000000e+000
 12217   60.000000  60.000000 0.000000e+000
 12316   60.000000  60.000000 0.000000e+000
 12317   60.000000  60.000000 0.000000e+000
 12416   60.000000  60.000000 0.000000e+000
 12417   60.000000  60.000000 0.000000e+000
 12516   60.000000  60.000000 0.000000e+000
 12517   60.000000  60.000000 0.000000e+000
 12616   60.000000  60.000000 0.000000e+000
 12617   60.000000  60.000000 0.000000e+000
 12716   60.000000  60.000000 0.000000e+000
 12717   60.000000  60.000000 0.000000e+000
 12816   60.000000  60.000000 0.000000e+000
 12817   60.000000  60.000000 0.000000e+000
 12916   60.000000  60.000000 0.000000e+000
 12917   60.000000  60.000000 0.000000e+000
 13016   60.000000  60.000000 0.000000e+000
 13017   60.000000  60.000000 0.000000e+000
 13116   60.000000  60.000000 0.000000e+000
 13117   60.000000  60.000000 0.000000e+000
 13216   60.000000  60.000000 0.000000e+000
 13217   60.000000  60.000000 0.000000e+000
 13316   60.000000  60.000000 0.000000e+000
 13317   60.000000  60.000000 0.000000e+000
 13416   60.000000  60.000000 0.000000e+000
 13417   60.000000  60.000000 0.000000e+000
 13516   60.000000  60.000000 0.000000e+000
 13517   60.000000  60.000000 0.000000e+000
 13616   60.000000  60.000000 0.000000e+000
 13617   60.000000  60.000000 0.000000e+000
 13716   60.000000  60.000000 0.000000e+000
 13717   60.000000  60.000000 0.000000e+000
 13816   60.000000  60.000000 0.000000e+000
 13817   60.000000  60.000000 0.000000e+000
 13916   60.000000  60.000000 0.000000e+000
 13917   60.000000  60.000000 0.000000e+000
 14016   60.000000  60.000000 0.000000e+000
 14017   60.000000  60.000000 0.000000e+000
 14116   60.000000  60.000000 0.000000e+000
 14117   60.000000  60.000000 0.000000e+000
 14216   60.000000  60.000000 0.000000e+000
 14217   60.000000  60.000000 0.000000e+000
 14316   60.000000  60.000000 0.000000e+000
 14317   60.000000  60.000000 0.000000e+000
 14416   60.000000  60.000000 0.000000e+000
 14417   60.000000  60.000000 0.000000e+000
 14516   60.000000  60.000000 0.000000e+000
 14517   60.000000  60.000000 0.000000e+000
 14616   60.000000  60.000000 0.000000e+000
 14617   60.000000  60.000000 0.000000e+000
 14716   60.000000  60.000000 0.000000e+000
 14717   60.000000  60.000000 0.000000e+000
 14816   60.000000  60.000000 0.000000e+000
 14817   60.000000  60.000000 0.000000e+000
 14916   60.000000  60.000000 0.000000e+000
 14917   60.000000  60.000000 0.000000e+000
 15016   60.000000  60.000000 0.000000e+000
 15017   60.000000  60.000000 0.000000e+000
 15116   60.000000  60.000000 0.000000e+000
 15117   60.000000  60.000000 0.000000e+000
 15216   60.000000  60.000000 0.000000e+000
 15217   60.000000  60.000000 0.000000e+000
 15316   60.000000  60.000000 0.000000e+000
 15317   60.000000  60.000000 0.000000e+000
 15416   60.000000  60.000000 0.000000e+000
 15417   60.000000  60.000000 0.000000e+000
 15516   60.000000  60.000000 0.000000e+000
 15517   60.000000  60.000000 0.000000e+000
 15616   60.000000  60.000000 0.000000e+000
 15617   60.000000  60.000000 0.000000e+000
 15690   60.000000  60.000000 0.000000e+000
 15691   60.000000  60.000000 0.000000e+000
 15764   60.000000  60.000000 0.000000e+000
 15765   60.000000  60.000000 0.000000e+000
 15838   60.000000  60.000000 0.000000e+000
 15839   60.000000  60.000000 0.000000e+000
 15912   60.000000  60.000000 0.000000e+000
 15913   60.000000  60.000000 0.000000e+000
 15986   60.000000  60.000000 0.000000e+000
 15987   60.000000  60.000000 0.000000e+000
 16060   60.000000  60.000000 0.000000e+000
 16061   60.000000  60.000000 0.000000e+000
 16134   60.000000  60.000000 0.000000e+000
 16135   60.000000  60.000000 0.000000e+000
 16208   60.000000  60.000000 0.000000e+000
 16209   60.000000  60.000000 0.000000e+000
 16282   60.000000  60.000000 0.000000e+000
 16283   60.000000  60.000000 0.000000e+000
 16356   60.000000  60.000000 0.000000e+000
 16357   60.000000  60.000000 0.000000e+000
 16430   60.000000  60.000000 0.000000e+000
 16431   60.000000  60.000000 0.000000e+000
 16504   60.000000  60.000000 0.000000e+000
 16505   60.000000  60.000000 0.000000e+000
 16578   60.000000  60.000000 0.000000e+000
 16579   60.000000  60.000000 0.000000e+000
 16652   60.000000  60.000000 0.000000e+000
 16653   60.000000  60.000000 0.000000e+000
 16726   60.000000  60.000000 0.000000e+000
 16727   60.000000  60.000000 0.000000e+000
 16800   60.000000  60.000000 0.000000e+000
 16801   60.000000  60.000000 0.000000e+000
 16874   60.000000  60.000000 0.000000e+000
 16875   60.000000  60.000000 0.000000e+000
 16948   60.000000  60.000000 0.000000e+000
 16949   60.000000  60.000000 0.000000e+000
 17022   60.000000  60.000000 0.000000e+000
 17023   60.000000  60.000000 0.000000e+000
 17096   60.000000  60.000000 0.000000e+000
 17097   60.000000  60.000000 0.000000e+000
 17170   60.000000  60.000000 0.000000e+000
 17171   60.000000  60.000000 0.000000e+000
 17244   60.000000  60.000000 0.000000e+000
 17245   60.000000  60.000000 0.000000e+000
 17344   60.000000  60.000000 0.000000e+000
 17345   60.000000  60.000000 0.000000e+000
 17444   60.000000  60.000000 0.000000e+000
 17445   60.000000  60.000000 0.000000e+000
 17544   60.000000  60.000000 0.000000e+000
 17545   60.000000  60.000000 0.000000e+000
 17644   60.000000  60.000000 0.000000e+000
 17645   60.000000  60.000000 0.000000e+000
 17744   60.000000  60.000000 0.000000e+000
 17745   60.000000  60.000000 0.000000e+000
 17844   60.000000  60.000000 0.000000e+000
 17845   60.000000  60.000000 0.000000e+000
 17944   60.000000  60.000000 0.000000e+000
 17945   60.000000  60.000000 0.000000e+000
 18044   60.000000  60.000000 0.000000e+000
 18045   60.000000  60.000000 0.000000e+000
 18144   60.000000  60.000000 0.000000e+000
 18145   60.000000  60.000000 0.000000e+000
 18244   60.000000  60.000000 0.000000e+000
 18245   60.000000  60.000000 0.000000e+000
 18344   60.000000  60.000000 0.000000e+000
 18345   60.000000  60.000000 0.000000e+000
 18444   60.000000  60.000000 0.000000e+000
 18445   60.000000  60.000000 0.000000e+000
 18544   60.000000  60.000000 0.000000e+000
 18545   60.000000  60.000000 0.000000e+000
 18644   60.000000  60.000000 0.000000e+000
 18645   60.000000  60.000000 0.000000e+000
 18744   60.000000  60.000000 0.000000e+000
 18745   60.000000  60.000000 0.000000e+000
 18844   60.000000  60.000000 0.000000e+000
 18845   60.000000  60.000000 0.000000e+000
 18944   60.000000  60.000000 0.000000e+000
 18945   60.000000  60.000000 0.000000e+000
 19044   60.000000  60.000000 0.000000e+000
 19045   60.000000  60.000000 0.000000e+000
 19144   60.000000  60.000000 0.000000e+000
 19145   60.000000  60.000000 0.000000e+000
 19244   60.000000  60.000000 0.000000e+000
 19245   60.000000  60.000000 0.000000e+000
 19344   60.000000  60.000000 0.000000e+000
 19345   60.000000  60.000000 0.000000e+000
 19444   60.000000  60.000000 0.000000e+000
 19445   60.000000  60.000000 0.000000e+000
 19544   60.000000  60.000000 0.000000e+000
 19545   60.000000  60.000000 0.000000e+000
 19644   60.000000  60.000000 0.000000e+000
 19645   60.000000  60.000000 0.000000e+000
 19744   60.000000  60.000000 0.000000e+000
 19745   60.000000  60.000000 0.000000e+000
 19844   60.000000  60.000000 0.000000e+000
 19845   60.000000  60.000000 0.000000e+000
 19944   60.000000  60.000000 0.000000e+000
 19945   60.000000  60.000000 0.000000e+000
 20044   60.000000  60.000000 0.000000e+000
 20045   60.000000  60.000000 0.000000e+000
 20144   60.000000  60.000000 0.000000e+000
 20145   60.000000  60.000000 0.000000e+000
 20244   60.000000  60.000000 0.000000e+000
 20245   60.000000  60.000000 0.000000e+000
 20344   60.000000  60.000000 0.000000e+000
 20345   60.000000  60.000000 0.000000e+000
 20444   60.000000  60.000000 0.000000e+000
 20445   60.000000  60.000000 0.000000e+000
 20544   60.000000  60.000000 0.000000e+000
 20545   60.000000  60.000000 0.000000e+000
 20644   60.000000  60.000000 0.000000e+000
 20645   60.000000  60.000000 0.000000e+000
 20744   60.000000  60.000000 0.000000e+000
 20745   60.000000  60.000000 0.000000e+000
 20844   60.000000  60.000000 0.000000e+000
 20845   60.000000  60.000000 0.000000e+000
 20944   60.000000  60.000000 0.000000e+000
 20945   60.000000  60.000000 0.000000e+000
 21044   60.000000  60.000000 0.000000e+000
 21045   60.000000  60.000000 0.000000e+000
 21046   60.000000  60.000000 0.000000e+000
 21047   60.000000  60.000000 0.000000e+000
 21048   60.000000  60.000000 0.000000e+000
 21049   60.000000  60.000000 0.000000e+000
 21050   60.000000  60.000000 0.000000e+000
 21051   60.000000  60.000000 0.000000e+000
 21052   60.000000  60.000000 0.000000e+000
 21053   60.000000  60.000000 0.000000e+000
 21054   60.000000  60.000000 0.000000e+000
 21055   60.000000  60.000000 0.000000e+000
 21056   60.000000  60.000000 0.000000e+000
 21057   60.000000  60.000000 0.000000e+000
 21058   60.000000  60.000000 0.000000e+000
 21059   60.000000  60.000000 0.000000e+000
 21060   60.000000  60.000000 0.000000e+000
 21061   60.000000  60.000000 0.000000e+000
 21062   60.000000  60.000000 0.000000e+000
 21063   60.000000  60.000000 0.000000e+000
 21064   60.000000  60.000000 0.000000e+000
 21065   60.000000  60.000000 0.000000e+000
 21066   60.000000  60.000000 0.000000e+000
 21067   60.000000  60.000000 0.000000e+000
 21068   60.000000  60.000000 0.000000e+000
 21069   60.000000  60.000000 0.000000e+000
 21070   60.000000  60.000000 0.000000e+000
 21071   60.000000  60.000000 0.000000e+000
 21072   60.000000  60.000000 0.000000e+000
 21073   60.000000  60.000000 0.000000e+000
 21074   60.000000  60.000000 0.000000e+000
 21075   60.000000  60.000000 0.000000e+000
 21076   60.000000  60.000000 0.000000e+000
 21077   60.000000  60.000000 0.000000e+000
 21078   60.000000  60.000000 0.000000e+000
 21079   60.000000  60.000000 0.000000e+000
 21080   60.000000  60.000000 0.000000e+000
 21081   60.000000  60.000000 0.000000e+000
 21082   60.000000  60.000000 0.000000e+000
 21083   60.000000  60.000000 0.000000e+000
 21084   60.000000  60.000000 0.000000e+000
 21085   60.000000  60.000000 0.000000e+000
 21086   60.000000  60.000000 0.000000e+000
 21087   60.000000  60.000000 0.000000e+000
 21088   60.000000  60.000000 0.000000e+000
 21089   60.000000  60.000000 0.000000e+000
 21090   60.000000  60.000000 0.000000e+000
 21091   60.000000  60.000000 0.000000e+000
 21092   60.000000  60.000000 0.000000e+000
 21093   60.000000  60.000000 0.000000e+000
 21094   60.000000  60.000000 0.000000e+000
 21095   60.000000  60.000000 0.000000e+000
 21096   60.000000  60.000000 0.000000e+000
 21097   60.000000  60.000000 0.000000e+000
 21098   60.000000  60.000000 0.000000e+000
 21099   60.000000  60.000000 0.000000e+000
 21100   60.000000  60.000000 0.000000e+000
 21101   60.000000  60.000000 0.000000e+000
 21102   60.000000  60.000000 0.000000e+000
 21103   60.000000  60.000000 0.000000e+000
 21104   60.000000  60.000000 0.000000e+000
 21105   60.000000  60.000000 0.000000e+000
 21106   60.000000  60.000000 0.000000e+000
 21107   60.000000  60.000000 0.000000e+000
 21108   60.000000  60.000000 0.000000e+000
 21109   60.000000  60.000000 0.000000e+000
 21110   60.000000  60.000000 0.000000e+000
 21111   60.000000  60.000000 0.000000e+000
 21112   60.000000  60.000000 0.000000e+000
 21113   60.000000  60.000000 0.000000e+000
 21114   60.000000  60.000000 0.000000e+000
 21115   60.000000  60.000000 0.000000e+000
 21116   60.000000  60.000000 0.000000e+000
 21117   60.000000  60.000000 0.000000e+000
 21118   60.000000  60.000000 0.000000e+000
 21119   60.000000  60.000000 0.000000e+000
 21120   60.000000  60.000000 0.000000e+000
 21121   60.000000  60.000000 0.000000e+000
 21122   60.000000  60.000000 0.000000e+000
 21123   60.000000  60.000000 0.000000e+000
 21124   60.000000  60.000000 0.000000e+000
 21125   60.000000  60.000000 0.000000e+000
 21126   60.000000  60.000000 0.000000e+000
 21127   60.000000  60.000000 0.000000e+000
 21128   60.000000  60.000000 0.000000e+000
 21129   60.000000  60.000000 0.000000e+000
 21130   60.000000  60.000000 0.000000e+000
 21131   60.000000  60.000000 0.000000e+000
 21132   60.000000  60.000000 0.000000e+000
 21133   60.000000  60.000000 0.000000e+000
 21134   60.000000  60.000000 0.000000e+000
 21135   60.000000  60.000000 0.000000e+000
 21136   60.000000  60.000000 0.000000e+000
 21137   60.000000  60.000000 0.000000e+000
 21138   60.000000  60.000000 0.000000e+000
 21139   60.000000  60.000000 0.000000e+000
 21140   60.000000  60.000000 0.000000e+000
 21141   60.000000  60.000000 0.000000e+000
 21142   60.000000  60.000000 0.000000e+000
 21143   60.000000  60.000000 0.000000e+000
 21144   60.000000  60.000000 0.000000e+000
