# RIV for MODFLOW, generated by Flopy.
         3         0
         3         0 # stress period 0
        77 10.700000 5000.000000 -5.700000
       245 10.700000 5000.000000 -5.700000
    450034 10.700000 5000.000000 -5.700000
