# Discretization file for MODFLOW, generated by Flopy.
         1         2         2         8         4         2
  0
CONSTANT    1.000000E+00                           #delr                          
CONSTANT    1.000000E+00                           #delc                          
CONSTANT    1.000000E+00                           #model_top                     
CONSTANT    0.000000E+00                           #botm Layer 1                  
      1.000000             1  1.000000  SS 
      1.000000             1  1.000000  SS 
      1.000000             1  1.000000  SS 
      1.000000             1  1.000000  SS 
      1.000000             1  1.000000  SS 
      1.000000             1  1.000000  SS 
      1.000000             1  1.000000  SS 
      1.000000             1  1.000000  SS 
