# MODFLOW-USGs Basic Package
# MODFLOW Data Set Created by Groundwater Vistas
#    
 UNSTRUCTURED FREE  RICHARDS
CONSTANT  1              IBOUND Layer 1
CONSTANT  1              IBOUND Layer 2
CONSTANT  1              IBOUND Layer 3
CONSTANT  1              IBOUND Layer 4
CONSTANT  1              IBOUND Layer 5
CONSTANT  1              IBOUND Layer 6
CONSTANT  1              IBOUND Layer 7
CONSTANT  1              IBOUND Layer 8
CONSTANT  1              IBOUND Layer 9
CONSTANT  1              IBOUND Layer 10
CONSTANT  1              IBOUND Layer 11
CONSTANT  1              IBOUND Layer 12
CONSTANT  1              IBOUND Layer 13
CONSTANT  1              IBOUND Layer 14
CONSTANT  1              IBOUND Layer 15
CONSTANT  1              IBOUND Layer 16
CONSTANT  1              IBOUND Layer 17
CONSTANT  1              IBOUND Layer 18
CONSTANT  1              IBOUND Layer 19
CONSTANT  1              IBOUND Layer 20
CONSTANT  1              IBOUND Layer 21
CONSTANT  1              IBOUND Layer 22
CONSTANT  1              IBOUND Layer 23
CONSTANT  1              IBOUND Layer 24
CONSTANT  1              IBOUND Layer 25
CONSTANT  1              IBOUND Layer 26
CONSTANT  1              IBOUND Layer 27
CONSTANT  1              IBOUND Layer 28
CONSTANT  1              IBOUND Layer 29
INTERNAL  1  (FREE)  -1  IBOUND Layer 30
 1 1 1 1
9.990000e+02
CONSTANT 15.000000                    Starting Heads Layer 1
CONSTANT 15.000000                    Starting Heads Layer 2
CONSTANT 15.000000                    Starting Heads Layer 3
CONSTANT 15.000000                    Starting Heads Layer 4
CONSTANT 15.000000                    Starting Heads Layer 5
CONSTANT 15.000000                    Starting Heads Layer 6
CONSTANT 15.000000                    Starting Heads Layer 7
CONSTANT 15.000000                    Starting Heads Layer 8
CONSTANT 15.000000                    Starting Heads Layer 9
CONSTANT 15.000000                    Starting Heads Layer 10
CONSTANT 15.000000                    Starting Heads Layer 11
CONSTANT 15.000000                    Starting Heads Layer 12
CONSTANT 15.000000                    Starting Heads Layer 13
CONSTANT 15.000000                    Starting Heads Layer 14
CONSTANT 15.000000                    Starting Heads Layer 15
CONSTANT 15.000000                    Starting Heads Layer 16
CONSTANT 15.000000                    Starting Heads Layer 17
CONSTANT 15.000000                    Starting Heads Layer 18
CONSTANT 15.000000                    Starting Heads Layer 19
CONSTANT 15.000000                    Starting Heads Layer 20
CONSTANT 15.000000                    Starting Heads Layer 21
CONSTANT 15.000000                    Starting Heads Layer 22
CONSTANT 15.000000                    Starting Heads Layer 23
CONSTANT 15.000000                    Starting Heads Layer 24
CONSTANT 15.000000                    Starting Heads Layer 25
CONSTANT 15.000000                    Starting Heads Layer 26
CONSTANT 15.000000                    Starting Heads Layer 27
CONSTANT 15.000000                    Starting Heads Layer 28
CONSTANT 15.000000                    Starting Heads Layer 29
CONSTANT 15.000000                    Starting Heads Layer 30
