# MODFLOW2000 Layer Property Flow (LPF) Package
        50  9.990000e+002         0
  0  0  0  0  0  0  0  0  0  0  0  0  0  0  0  0  0  0  0  0  0  0  0  0  0  0  0  0  0  0  0  0  0  0  0  0  0  0  0  0  0  0  0  0  0  0  0  0  0  0
  0  0  0  0  0  0  0  0  0  0  0  0  0  0  0  0  0  0  0  0  0  0  0  0  0  0
  0  0  0  0  0  0  0  0  0  0  0  0  0  0  0  0  0  0  0  0  0  0  0  0  0  0  0  0  0  0  0  0  0  0  0  0  0  0  0  0  0  0  0  0  0  0  0  0  0  0
  0  0  0  0  0  0  0  0  0  0  0  0  0  0  0  0  0  0  0  0  0  0  0  0  0  0
  1.000000e+000  1.000000e+000  1.000000e+000  1.000000e+000  1.000000e+000  1.000000e+000  1.000000e+000  1.000000e+000  1.000000e+000  1.000000e+000  1.000000e+000  1.000000e+000  1.000000e+000  1.000000e+000  1.000000e+000  1.000000e+000  1.000000e+000  1.000000e+000  1.000000e+000  1.000000e+000
  1.000000e+000  1.000000e+000  1.000000e+000  1.000000e+000  1.000000e+000  1.000000e+000  1.000000e+000  1.000000e+000  1.000000e+000  1.000000e+000  1.000000e+000  1.000000e+000  1.000000e+000  1.000000e+000  1.000000e+000  1.000000e+000  1.000000e+000  1.000000e+000  1.000000e+000  1.000000e+000
  1.000000e+000  1.000000e+000  1.000000e+000  1.000000e+000  1.000000e+000  1.000000e+000  1.000000e+000  1.000000e+000  1.000000e+000  1.000000e+000  1.000000e+000  1.000000e+000  1.000000e+000  1.000000e+000  1.000000e+000  1.000000e+000  1.000000e+000  1.000000e+000  1.000000e+000  1.000000e+000
  1.000000e+000  1.000000e+000  1.000000e+000  1.000000e+000  1.000000e+000  1.000000e+000  1.000000e+000  1.000000e+000  1.000000e+000  1.000000e+000  1.000000e+000  1.000000e+000  1.000000e+000  1.000000e+000  1.000000e+000  1.000000e+000
 0 0 0 0 0 0 0 0 0 0 0 0 0 0 0 0 0 0 0 0 0 0 0 0 0 0 0 0 0 0 0 0 0 0 0 0 0 0 0 0 0 0 0 0 0 0 0 0 0 0
 0 0 0 0 0 0 0 0 0 0 0 0 0 0 0 0 0 0 0 0 0 0 0 0 0 0
 0 0 0 0 0 0 0 0 0 0 0 0 0 0 0 0 0 0 0 0 0 0 0 0 0 0 0 0 0 0 0 0 0 0 0 0 0 0 0 0 0 0 0 0 0 0 0 0 0 0
 0 0 0 0 0 0 0 0 0 0 0 0 0 0 0 0 0 0 0 0 0 0 0 0 0 0
        11     1.000(10e12.4)                   -1     HYDRAULIC CONDUCTIVITY Layer   1
  8.4758e-01  8.4758e-01  8.4758e-01  8.4758e-01  8.4758e-01  8.4758e-01  8.4758e-01  8.4758e-01  8.4758e-01  8.4758e-01
  8.4758e-01  8.4758e-01  8.4758e-01  8.4758e-01  8.4758e-01  8.4758e-01  8.4758e-01  8.4758e-01  8.4758e-01  8.4758e-01
  8.4758e-01  8.4758e-01  8.4758e-01  8.4758e-01  8.4758e-01  8.4758e-01  8.4758e-01  8.4758e-01  8.4758e-01  8.4758e-01
  8.4758e-01  8.4758e-01  8.4758e-01  8.4758e-01  8.4758e-01  8.4758e-01  8.4758e-01  8.4758e-01  8.4758e-01  8.4758e-01
  8.4758e-01  8.4758e-01  8.4758e-01  8.4758e-01  8.4758e-01
        11     1.000(10e12.4)                   -1     VERTICAL HYDRAULIC CONDUCTIVITY Layer   1
  8.4758e-01  8.4758e-01  8.4758e-01  8.4758e-01  8.4758e-01  8.4758e-01  8.4758e-01  8.4758e-01  8.4758e-01  8.4758e-01
  8.4758e-01  8.4758e-01  8.4758e-01  8.4758e-01  8.4758e-01  8.4758e-01  8.4758e-01  8.4758e-01  8.4758e-01  8.4758e-01
  8.4758e-01  8.4758e-01  8.4758e-01  8.4758e-01  8.4758e-01  8.4758e-01  8.4758e-01  8.4758e-01  8.4758e-01  8.4758e-01
  8.4758e-01  8.4758e-01  8.4758e-01  8.4758e-01  8.4758e-01  8.4758e-01  8.4758e-01  8.4758e-01  8.4758e-01  8.4758e-01
  8.4758e-01  8.4758e-01  8.4758e-01  8.4758e-01  8.4758e-01
        11     1.000(10e12.4)                   -1     PRIMARY STORAGE Layer   1
  1.0000e-05  1.0000e-05  1.0000e-05  1.0000e-05  1.0000e-05  1.0000e-05  1.0000e-05  1.0000e-05  1.0000e-05  1.0000e-05
  1.0000e-05  1.0000e-05  1.0000e-05  1.0000e-05  1.0000e-05  1.0000e-05  1.0000e-05  1.0000e-05  1.0000e-05  1.0000e-05
  1.0000e-05  1.0000e-05  1.0000e-05  1.0000e-05  1.0000e-05  1.0000e-05  1.0000e-05  1.0000e-05  1.0000e-05  1.0000e-05
  1.0000e-05  1.0000e-05  1.0000e-05  1.0000e-05  1.0000e-05  1.0000e-05  1.0000e-05  1.0000e-05  1.0000e-05  1.0000e-05
  1.0000e-05  1.0000e-05  1.0000e-05  1.0000e-05  1.0000e-05
        11     1.000(10e12.4)                   -1     HYDRAULIC CONDUCTIVITY Layer   2
  8.4758e-01  8.4758e-01  8.4758e-01  8.4758e-01  8.4758e-01  8.4758e-01  8.4758e-01  8.4758e-01  8.4758e-01  8.4758e-01
  8.4758e-01  8.4758e-01  8.4758e-01  8.4758e-01  8.4758e-01  8.4758e-01  8.4758e-01  8.4758e-01  8.4758e-01  8.4758e-01
  8.4758e-01  8.4758e-01  8.4758e-01  8.4758e-01  8.4758e-01  8.4758e-01  8.4758e-01  8.4758e-01  8.4758e-01  8.4758e-01
  8.4758e-01  8.4758e-01  8.4758e-01  8.4758e-01  8.4758e-01  8.4758e-01  8.4758e-01  8.4758e-01  8.4758e-01  8.4758e-01
  8.4758e-01  8.4758e-01  8.4758e-01  8.4758e-01  8.4758e-01
        11     1.000(10e12.4)                   -1     VERTICAL HYDRAULIC CONDUCTIVITY Layer   2
  8.4758e-01  8.4758e-01  8.4758e-01  8.4758e-01  8.4758e-01  8.4758e-01  8.4758e-01  8.4758e-01  8.4758e-01  8.4758e-01
  8.4758e-01  8.4758e-01  8.4758e-01  8.4758e-01  8.4758e-01  8.4758e-01  8.4758e-01  8.4758e-01  8.4758e-01  8.4758e-01
  8.4758e-01  8.4758e-01  8.4758e-01  8.4758e-01  8.4758e-01  8.4758e-01  8.4758e-01  8.4758e-01  8.4758e-01  8.4758e-01
  8.4758e-01  8.4758e-01  8.4758e-01  8.4758e-01  8.4758e-01  8.4758e-01  8.4758e-01  8.4758e-01  8.4758e-01  8.4758e-01
  8.4758e-01  8.4758e-01  8.4758e-01  8.4758e-01  8.4758e-01
        11     1.000(10e12.4)                   -1     PRIMARY STORAGE Layer   2
  1.0000e-05  1.0000e-05  1.0000e-05  1.0000e-05  1.0000e-05  1.0000e-05  1.0000e-05  1.0000e-05  1.0000e-05  1.0000e-05
  1.0000e-05  1.0000e-05  1.0000e-05  1.0000e-05  1.0000e-05  1.0000e-05  1.0000e-05  1.0000e-05  1.0000e-05  1.0000e-05
  1.0000e-05  1.0000e-05  1.0000e-05  1.0000e-05  1.0000e-05  1.0000e-05  1.0000e-05  1.0000e-05  1.0000e-05  1.0000e-05
  1.0000e-05  1.0000e-05  1.0000e-05  1.0000e-05  1.0000e-05  1.0000e-05  1.0000e-05  1.0000e-05  1.0000e-05  1.0000e-05
  1.0000e-05  1.0000e-05  1.0000e-05  1.0000e-05  1.0000e-05
        11     1.000(10e12.4)                   -1     HYDRAULIC CONDUCTIVITY Layer   3
  8.4758e-01  8.4758e-01  8.4758e-01  8.4758e-01  8.4758e-01  8.4758e-01  8.4758e-01  8.4758e-01  8.4758e-01  8.4758e-01
  8.4758e-01  8.4758e-01  8.4758e-01  8.4758e-01  8.4758e-01  8.4758e-01  8.4758e-01  8.4758e-01  8.4758e-01  8.4758e-01
  8.4758e-01  8.4758e-01  8.4758e-01  8.4758e-01  8.4758e-01  8.4758e-01  8.4758e-01  8.4758e-01  8.4758e-01  8.4758e-01
  8.4758e-01  8.4758e-01  8.4758e-01  8.4758e-01  8.4758e-01  8.4758e-01  8.4758e-01  8.4758e-01  8.4758e-01  8.4758e-01
  8.4758e-01  8.4758e-01  8.4758e-01  8.4758e-01  8.4758e-01
        11     1.000(10e12.4)                   -1     VERTICAL HYDRAULIC CONDUCTIVITY Layer   3
  8.4758e-01  8.4758e-01  8.4758e-01  8.4758e-01  8.4758e-01  8.4758e-01  8.4758e-01  8.4758e-01  8.4758e-01  8.4758e-01
  8.4758e-01  8.4758e-01  8.4758e-01  8.4758e-01  8.4758e-01  8.4758e-01  8.4758e-01  8.4758e-01  8.4758e-01  8.4758e-01
  8.4758e-01  8.4758e-01  8.4758e-01  8.4758e-01  8.4758e-01  8.4758e-01  8.4758e-01  8.4758e-01  8.4758e-01  8.4758e-01
  8.4758e-01  8.4758e-01  8.4758e-01  8.4758e-01  8.4758e-01  8.4758e-01  8.4758e-01  8.4758e-01  8.4758e-01  8.4758e-01
  8.4758e-01  8.4758e-01  8.4758e-01  8.4758e-01  8.4758e-01
        11     1.000(10e12.4)                   -1     PRIMARY STORAGE Layer   3
  1.0000e-05  1.0000e-05  1.0000e-05  1.0000e-05  1.0000e-05  1.0000e-05  1.0000e-05  1.0000e-05  1.0000e-05  1.0000e-05
  1.0000e-05  1.0000e-05  1.0000e-05  1.0000e-05  1.0000e-05  1.0000e-05  1.0000e-05  1.0000e-05  1.0000e-05  1.0000e-05
  1.0000e-05  1.0000e-05  1.0000e-05  1.0000e-05  1.0000e-05  1.0000e-05  1.0000e-05  1.0000e-05  1.0000e-05  1.0000e-05
  1.0000e-05  1.0000e-05  1.0000e-05  1.0000e-05  1.0000e-05  1.0000e-05  1.0000e-05  1.0000e-05  1.0000e-05  1.0000e-05
  1.0000e-05  1.0000e-05  1.0000e-05  1.0000e-05  1.0000e-05
        11     1.000(10e12.4)                   -1     HYDRAULIC CONDUCTIVITY Layer   4
  8.4758e-01  8.4758e-01  8.4758e-01  8.4758e-01  8.4758e-01  8.4758e-01  8.4758e-01  8.4758e-01  8.4758e-01  8.4758e-01
  8.4758e-01  8.4758e-01  8.4758e-01  8.4758e-01  8.4758e-01  8.4758e-01  8.4758e-01  8.4758e-01  8.4758e-01  8.4758e-01
  8.4758e-01  8.4758e-01  8.4758e-01  8.4758e-01  8.4758e-01  8.4758e-01  8.4758e-01  8.4758e-01  8.4758e-01  8.4758e-01
  8.4758e-01  8.4758e-01  8.4758e-01  8.4758e-01  8.4758e-01  8.4758e-01  8.4758e-01  8.4758e-01  8.4758e-01  8.4758e-01
  8.4758e-01  8.4758e-01  8.4758e-01  8.4758e-01  8.4758e-01
        11     1.000(10e12.4)                   -1     VERTICAL HYDRAULIC CONDUCTIVITY Layer   4
  8.4758e-01  8.4758e-01  8.4758e-01  8.4758e-01  8.4758e-01  8.4758e-01  8.4758e-01  8.4758e-01  8.4758e-01  8.4758e-01
  8.4758e-01  8.4758e-01  8.4758e-01  8.4758e-01  8.4758e-01  8.4758e-01  8.4758e-01  8.4758e-01  8.4758e-01  8.4758e-01
  8.4758e-01  8.4758e-01  8.4758e-01  8.4758e-01  8.4758e-01  8.4758e-01  8.4758e-01  8.4758e-01  8.4758e-01  8.4758e-01
  8.4758e-01  8.4758e-01  8.4758e-01  8.4758e-01  8.4758e-01  8.4758e-01  8.4758e-01  8.4758e-01  8.4758e-01  8.4758e-01
  8.4758e-01  8.4758e-01  8.4758e-01  8.4758e-01  8.4758e-01
        11     1.000(10e12.4)                   -1     PRIMARY STORAGE Layer   4
  1.0000e-05  1.0000e-05  1.0000e-05  1.0000e-05  1.0000e-05  1.0000e-05  1.0000e-05  1.0000e-05  1.0000e-05  1.0000e-05
  1.0000e-05  1.0000e-05  1.0000e-05  1.0000e-05  1.0000e-05  1.0000e-05  1.0000e-05  1.0000e-05  1.0000e-05  1.0000e-05
  1.0000e-05  1.0000e-05  1.0000e-05  1.0000e-05  1.0000e-05  1.0000e-05  1.0000e-05  1.0000e-05  1.0000e-05  1.0000e-05
  1.0000e-05  1.0000e-05  1.0000e-05  1.0000e-05  1.0000e-05  1.0000e-05  1.0000e-05  1.0000e-05  1.0000e-05  1.0000e-05
  1.0000e-05  1.0000e-05  1.0000e-05  1.0000e-05  1.0000e-05
        11     1.000(10e12.4)                   -1     HYDRAULIC CONDUCTIVITY Layer   5
  8.4758e-01  8.4758e-01  8.4758e-01  8.4758e-01  8.4758e-01  8.4758e-01  8.4758e-01  8.4758e-01  8.4758e-01  8.4758e-01
  8.4758e-01  8.4758e-01  8.4758e-01  8.4758e-01  8.4758e-01  8.4758e-01  8.4758e-01  8.4758e-01  8.4758e-01  8.4758e-01
  8.4758e-01  8.4758e-01  8.4758e-01  8.4758e-01  8.4758e-01  8.4758e-01  8.4758e-01  8.4758e-01  8.4758e-01  8.4758e-01
  8.4758e-01  8.4758e-01  8.4758e-01  8.4758e-01  8.4758e-01  8.4758e-01  8.4758e-01  8.4758e-01  8.4758e-01  8.4758e-01
  8.4758e-01  8.4758e-01  8.4758e-01  8.4758e-01  8.4758e-01
        11     1.000(10e12.4)                   -1     VERTICAL HYDRAULIC CONDUCTIVITY Layer   5
  8.4758e-01  8.4758e-01  8.4758e-01  8.4758e-01  8.4758e-01  8.4758e-01  8.4758e-01  8.4758e-01  8.4758e-01  8.4758e-01
  8.4758e-01  8.4758e-01  8.4758e-01  8.4758e-01  8.4758e-01  8.4758e-01  8.4758e-01  8.4758e-01  8.4758e-01  8.4758e-01
  8.4758e-01  8.4758e-01  8.4758e-01  8.4758e-01  8.4758e-01  8.4758e-01  8.4758e-01  8.4758e-01  8.4758e-01  8.4758e-01
  8.4758e-01  8.4758e-01  8.4758e-01  8.4758e-01  8.4758e-01  8.4758e-01  8.4758e-01  8.4758e-01  8.4758e-01  8.4758e-01
  8.4758e-01  8.4758e-01  8.4758e-01  8.4758e-01  8.4758e-01
        11     1.000(10e12.4)                   -1     PRIMARY STORAGE Layer   5
  1.0000e-05  1.0000e-05  1.0000e-05  1.0000e-05  1.0000e-05  1.0000e-05  1.0000e-05  1.0000e-05  1.0000e-05  1.0000e-05
  1.0000e-05  1.0000e-05  1.0000e-05  1.0000e-05  1.0000e-05  1.0000e-05  1.0000e-05  1.0000e-05  1.0000e-05  1.0000e-05
  1.0000e-05  1.0000e-05  1.0000e-05  1.0000e-05  1.0000e-05  1.0000e-05  1.0000e-05  1.0000e-05  1.0000e-05  1.0000e-05
  1.0000e-05  1.0000e-05  1.0000e-05  1.0000e-05  1.0000e-05  1.0000e-05  1.0000e-05  1.0000e-05  1.0000e-05  1.0000e-05
  1.0000e-05  1.0000e-05  1.0000e-05  1.0000e-05  1.0000e-05
        11     1.000(10e12.4)                   -1     HYDRAULIC CONDUCTIVITY Layer   6
  8.4758e-01  8.4758e-01  8.4758e-01  8.4758e-01  8.4758e-01  8.4758e-01  8.4758e-01  8.4758e-01  8.4758e-01  8.4758e-01
  8.4758e-01  8.4758e-01  8.4758e-01  8.4758e-01  8.4758e-01  8.4758e-01  8.4758e-01  8.4758e-01  8.4758e-01  8.4758e-01
  8.4758e-01  8.4758e-01  8.4758e-01  8.4758e-01  8.4758e-01  8.4758e-01  8.4758e-01  8.4758e-01  8.4758e-01  8.4758e-01
  8.4758e-01  8.4758e-01  8.4758e-01  8.4758e-01  8.4758e-01  8.4758e-01  8.4758e-01  8.4758e-01  8.4758e-01  8.4758e-01
  8.4758e-01  8.4758e-01  8.4758e-01  8.4758e-01  8.4758e-01
        11     1.000(10e12.4)                   -1     VERTICAL HYDRAULIC CONDUCTIVITY Layer   6
  8.4758e-01  8.4758e-01  8.4758e-01  8.4758e-01  8.4758e-01  8.4758e-01  8.4758e-01  8.4758e-01  8.4758e-01  8.4758e-01
  8.4758e-01  8.4758e-01  8.4758e-01  8.4758e-01  8.4758e-01  8.4758e-01  8.4758e-01  8.4758e-01  8.4758e-01  8.4758e-01
  8.4758e-01  8.4758e-01  8.4758e-01  8.4758e-01  8.4758e-01  8.4758e-01  8.4758e-01  8.4758e-01  8.4758e-01  8.4758e-01
  8.4758e-01  8.4758e-01  8.4758e-01  8.4758e-01  8.4758e-01  8.4758e-01  8.4758e-01  8.4758e-01  8.4758e-01  8.4758e-01
  8.4758e-01  8.4758e-01  8.4758e-01  8.4758e-01  8.4758e-01
        11     1.000(10e12.4)                   -1     PRIMARY STORAGE Layer   6
  1.0000e-05  1.0000e-05  1.0000e-05  1.0000e-05  1.0000e-05  1.0000e-05  1.0000e-05  1.0000e-05  1.0000e-05  1.0000e-05
  1.0000e-05  1.0000e-05  1.0000e-05  1.0000e-05  1.0000e-05  1.0000e-05  1.0000e-05  1.0000e-05  1.0000e-05  1.0000e-05
  1.0000e-05  1.0000e-05  1.0000e-05  1.0000e-05  1.0000e-05  1.0000e-05  1.0000e-05  1.0000e-05  1.0000e-05  1.0000e-05
  1.0000e-05  1.0000e-05  1.0000e-05  1.0000e-05  1.0000e-05  1.0000e-05  1.0000e-05  1.0000e-05  1.0000e-05  1.0000e-05
  1.0000e-05  1.0000e-05  1.0000e-05  1.0000e-05  1.0000e-05
        11     1.000(10e12.4)                   -1     HYDRAULIC CONDUCTIVITY Layer   7
  8.4758e-01  8.4758e-01  8.4758e-01  8.4758e-01  8.4758e-01  8.4758e-01  8.4758e-01  8.4758e-01  8.4758e-01  8.4758e-01
  8.4758e-01  8.4758e-01  8.4758e-01  8.4758e-01  8.4758e-01  8.4758e-01  8.4758e-01  8.4758e-01  8.4758e-01  8.4758e-01
  8.4758e-01  8.4758e-01  8.4758e-01  8.4758e-01  8.4758e-01  8.4758e-01  8.4758e-01  8.4758e-01  8.4758e-01  8.4758e-01
  8.4758e-01  8.4758e-01  8.4758e-01  8.4758e-01  8.4758e-01  8.4758e-01  8.4758e-01  8.4758e-01  8.4758e-01  8.4758e-01
  8.4758e-01  8.4758e-01  8.4758e-01  8.4758e-01  8.4758e-01
        11     1.000(10e12.4)                   -1     VERTICAL HYDRAULIC CONDUCTIVITY Layer   7
  8.4758e-01  8.4758e-01  8.4758e-01  8.4758e-01  8.4758e-01  8.4758e-01  8.4758e-01  8.4758e-01  8.4758e-01  8.4758e-01
  8.4758e-01  8.4758e-01  8.4758e-01  8.4758e-01  8.4758e-01  8.4758e-01  8.4758e-01  8.4758e-01  8.4758e-01  8.4758e-01
  8.4758e-01  8.4758e-01  8.4758e-01  8.4758e-01  8.4758e-01  8.4758e-01  8.4758e-01  8.4758e-01  8.4758e-01  8.4758e-01
  8.4758e-01  8.4758e-01  8.4758e-01  8.4758e-01  8.4758e-01  8.4758e-01  8.4758e-01  8.4758e-01  8.4758e-01  8.4758e-01
  8.4758e-01  8.4758e-01  8.4758e-01  8.4758e-01  8.4758e-01
        11     1.000(10e12.4)                   -1     PRIMARY STORAGE Layer   7
  1.0000e-05  1.0000e-05  1.0000e-05  1.0000e-05  1.0000e-05  1.0000e-05  1.0000e-05  1.0000e-05  1.0000e-05  1.0000e-05
  1.0000e-05  1.0000e-05  1.0000e-05  1.0000e-05  1.0000e-05  1.0000e-05  1.0000e-05  1.0000e-05  1.0000e-05  1.0000e-05
  1.0000e-05  1.0000e-05  1.0000e-05  1.0000e-05  1.0000e-05  1.0000e-05  1.0000e-05  1.0000e-05  1.0000e-05  1.0000e-05
  1.0000e-05  1.0000e-05  1.0000e-05  1.0000e-05  1.0000e-05  1.0000e-05  1.0000e-05  1.0000e-05  1.0000e-05  1.0000e-05
  1.0000e-05  1.0000e-05  1.0000e-05  1.0000e-05  1.0000e-05
        11     1.000(10e12.4)                   -1     HYDRAULIC CONDUCTIVITY Layer   8
  8.4758e-01  8.4758e-01  8.4758e-01  8.4758e-01  8.4758e-01  8.4758e-01  8.4758e-01  8.4758e-01  8.4758e-01  8.4758e-01
  8.4758e-01  8.4758e-01  8.4758e-01  8.4758e-01  8.4758e-01  8.4758e-01  8.4758e-01  8.4758e-01  8.4758e-01  8.4758e-01
  8.4758e-01  8.4758e-01  8.4758e-01  8.4758e-01  8.4758e-01  8.4758e-01  8.4758e-01  8.4758e-01  8.4758e-01  8.4758e-01
  8.4758e-01  8.4758e-01  8.4758e-01  8.4758e-01  8.4758e-01  8.4758e-01  8.4758e-01  8.4758e-01  8.4758e-01  8.4758e-01
  8.4758e-01  8.4758e-01  8.4758e-01  8.4758e-01  8.4758e-01
        11     1.000(10e12.4)                   -1     VERTICAL HYDRAULIC CONDUCTIVITY Layer   8
  8.4758e-01  8.4758e-01  8.4758e-01  8.4758e-01  8.4758e-01  8.4758e-01  8.4758e-01  8.4758e-01  8.4758e-01  8.4758e-01
  8.4758e-01  8.4758e-01  8.4758e-01  8.4758e-01  8.4758e-01  8.4758e-01  8.4758e-01  8.4758e-01  8.4758e-01  8.4758e-01
  8.4758e-01  8.4758e-01  8.4758e-01  8.4758e-01  8.4758e-01  8.4758e-01  8.4758e-01  8.4758e-01  8.4758e-01  8.4758e-01
  8.4758e-01  8.4758e-01  8.4758e-01  8.4758e-01  8.4758e-01  8.4758e-01  8.4758e-01  8.4758e-01  8.4758e-01  8.4758e-01
  8.4758e-01  8.4758e-01  8.4758e-01  8.4758e-01  8.4758e-01
        11     1.000(10e12.4)                   -1     PRIMARY STORAGE Layer   8
  1.0000e-05  1.0000e-05  1.0000e-05  1.0000e-05  1.0000e-05  1.0000e-05  1.0000e-05  1.0000e-05  1.0000e-05  1.0000e-05
  1.0000e-05  1.0000e-05  1.0000e-05  1.0000e-05  1.0000e-05  1.0000e-05  1.0000e-05  1.0000e-05  1.0000e-05  1.0000e-05
  1.0000e-05  1.0000e-05  1.0000e-05  1.0000e-05  1.0000e-05  1.0000e-05  1.0000e-05  1.0000e-05  1.0000e-05  1.0000e-05
  1.0000e-05  1.0000e-05  1.0000e-05  1.0000e-05  1.0000e-05  1.0000e-05  1.0000e-05  1.0000e-05  1.0000e-05  1.0000e-05
  1.0000e-05  1.0000e-05  1.0000e-05  1.0000e-05  1.0000e-05
        11     1.000(10e12.4)                   -1     HYDRAULIC CONDUCTIVITY Layer   9
  8.4758e-01  8.4758e-01  8.4758e-01  8.4758e-01  8.4758e-01  8.4758e-01  8.4758e-01  8.4758e-01  8.4758e-01  8.4758e-01
  8.4758e-01  8.4758e-01  8.4758e-01  8.4758e-01  8.4758e-01  8.4758e-01  8.4758e-01  8.4758e-01  8.4758e-01  8.4758e-01
  8.4758e-01  8.4758e-01  8.4758e-01  8.4758e-01  8.4758e-01  8.4758e-01  8.4758e-01  8.4758e-01  8.4758e-01  8.4758e-01
  8.4758e-01  8.4758e-01  8.4758e-01  8.4758e-01  8.4758e-01  8.4758e-01  8.4758e-01  8.4758e-01  8.4758e-01  8.4758e-01
  8.4758e-01  8.4758e-01  8.4758e-01  8.4758e-01  8.4758e-01
        11     1.000(10e12.4)                   -1     VERTICAL HYDRAULIC CONDUCTIVITY Layer   9
  8.4758e-01  8.4758e-01  8.4758e-01  8.4758e-01  8.4758e-01  8.4758e-01  8.4758e-01  8.4758e-01  8.4758e-01  8.4758e-01
  8.4758e-01  8.4758e-01  8.4758e-01  8.4758e-01  8.4758e-01  8.4758e-01  8.4758e-01  8.4758e-01  8.4758e-01  8.4758e-01
  8.4758e-01  8.4758e-01  8.4758e-01  8.4758e-01  8.4758e-01  8.4758e-01  8.4758e-01  8.4758e-01  8.4758e-01  8.4758e-01
  8.4758e-01  8.4758e-01  8.4758e-01  8.4758e-01  8.4758e-01  8.4758e-01  8.4758e-01  8.4758e-01  8.4758e-01  8.4758e-01
  8.4758e-01  8.4758e-01  8.4758e-01  8.4758e-01  8.4758e-01
        11     1.000(10e12.4)                   -1     PRIMARY STORAGE Layer   9
  1.0000e-05  1.0000e-05  1.0000e-05  1.0000e-05  1.0000e-05  1.0000e-05  1.0000e-05  1.0000e-05  1.0000e-05  1.0000e-05
  1.0000e-05  1.0000e-05  1.0000e-05  1.0000e-05  1.0000e-05  1.0000e-05  1.0000e-05  1.0000e-05  1.0000e-05  1.0000e-05
  1.0000e-05  1.0000e-05  1.0000e-05  1.0000e-05  1.0000e-05  1.0000e-05  1.0000e-05  1.0000e-05  1.0000e-05  1.0000e-05
  1.0000e-05  1.0000e-05  1.0000e-05  1.0000e-05  1.0000e-05  1.0000e-05  1.0000e-05  1.0000e-05  1.0000e-05  1.0000e-05
  1.0000e-05  1.0000e-05  1.0000e-05  1.0000e-05  1.0000e-05
        11     1.000(10e12.4)                   -1     HYDRAULIC CONDUCTIVITY Layer  10
  8.4758e-01  8.4758e-01  8.4758e-01  8.4758e-01  8.4758e-01  8.4758e-01  8.4758e-01  8.4758e-01  8.4758e-01  8.4758e-01
  8.4758e-01  8.4758e-01  8.4758e-01  8.4758e-01  8.4758e-01  8.4758e-01  8.4758e-01  8.4758e-01  8.4758e-01  8.4758e-01
  8.4758e-01  8.4758e-01  8.4758e-01  8.4758e-01  8.4758e-01  8.4758e-01  8.4758e-01  8.4758e-01  8.4758e-01  8.4758e-01
  8.4758e-01  8.4758e-01  8.4758e-01  8.4758e-01  8.4758e-01  8.4758e-01  8.4758e-01  8.4758e-01  8.4758e-01  8.4758e-01
  8.4758e-01  8.4758e-01  8.4758e-01  8.4758e-01  8.4758e-01
        11     1.000(10e12.4)                   -1     VERTICAL HYDRAULIC CONDUCTIVITY Layer  10
  8.4758e-01  8.4758e-01  8.4758e-01  8.4758e-01  8.4758e-01  8.4758e-01  8.4758e-01  8.4758e-01  8.4758e-01  8.4758e-01
  8.4758e-01  8.4758e-01  8.4758e-01  8.4758e-01  8.4758e-01  8.4758e-01  8.4758e-01  8.4758e-01  8.4758e-01  8.4758e-01
  8.4758e-01  8.4758e-01  8.4758e-01  8.4758e-01  8.4758e-01  8.4758e-01  8.4758e-01  8.4758e-01  8.4758e-01  8.4758e-01
  8.4758e-01  8.4758e-01  8.4758e-01  8.4758e-01  8.4758e-01  8.4758e-01  8.4758e-01  8.4758e-01  8.4758e-01  8.4758e-01
  8.4758e-01  8.4758e-01  8.4758e-01  8.4758e-01  8.4758e-01
        11     1.000(10e12.4)                   -1     PRIMARY STORAGE Layer  10
  1.0000e-05  1.0000e-05  1.0000e-05  1.0000e-05  1.0000e-05  1.0000e-05  1.0000e-05  1.0000e-05  1.0000e-05  1.0000e-05
  1.0000e-05  1.0000e-05  1.0000e-05  1.0000e-05  1.0000e-05  1.0000e-05  1.0000e-05  1.0000e-05  1.0000e-05  1.0000e-05
  1.0000e-05  1.0000e-05  1.0000e-05  1.0000e-05  1.0000e-05  1.0000e-05  1.0000e-05  1.0000e-05  1.0000e-05  1.0000e-05
  1.0000e-05  1.0000e-05  1.0000e-05  1.0000e-05  1.0000e-05  1.0000e-05  1.0000e-05  1.0000e-05  1.0000e-05  1.0000e-05
  1.0000e-05  1.0000e-05  1.0000e-05  1.0000e-05  1.0000e-05
        11     1.000(10e12.4)                   -1     HYDRAULIC CONDUCTIVITY Layer  11
  8.4758e-01  8.4758e-01  8.4758e-01  8.4758e-01  8.4758e-01  8.4758e-01  8.4758e-01  8.4758e-01  8.4758e-01  8.4758e-01
  8.4758e-01  8.4758e-01  8.4758e-01  8.4758e-01  8.4758e-01  8.4758e-01  8.4758e-01  8.4758e-01  8.4758e-01  8.4758e-01
  8.4758e-01  8.4758e-01  8.4758e-01  8.4758e-01  8.4758e-01  8.4758e-01  8.4758e-01  8.4758e-01  8.4758e-01  8.4758e-01
  8.4758e-01  8.4758e-01  8.4758e-01  8.4758e-01  8.4758e-01  8.4758e-01  8.4758e-01  8.4758e-01  8.4758e-01  8.4758e-01
  8.4758e-01  8.4758e-01  8.4758e-01  8.4758e-01  8.4758e-01
        11     1.000(10e12.4)                   -1     VERTICAL HYDRAULIC CONDUCTIVITY Layer  11
  8.4758e-01  8.4758e-01  8.4758e-01  8.4758e-01  8.4758e-01  8.4758e-01  8.4758e-01  8.4758e-01  8.4758e-01  8.4758e-01
  8.4758e-01  8.4758e-01  8.4758e-01  8.4758e-01  8.4758e-01  8.4758e-01  8.4758e-01  8.4758e-01  8.4758e-01  8.4758e-01
  8.4758e-01  8.4758e-01  8.4758e-01  8.4758e-01  8.4758e-01  8.4758e-01  8.4758e-01  8.4758e-01  8.4758e-01  8.4758e-01
  8.4758e-01  8.4758e-01  8.4758e-01  8.4758e-01  8.4758e-01  8.4758e-01  8.4758e-01  8.4758e-01  8.4758e-01  8.4758e-01
  8.4758e-01  8.4758e-01  8.4758e-01  8.4758e-01  8.4758e-01
        11     1.000(10e12.4)                   -1     PRIMARY STORAGE Layer  11
  1.0000e-05  1.0000e-05  1.0000e-05  1.0000e-05  1.0000e-05  1.0000e-05  1.0000e-05  1.0000e-05  1.0000e-05  1.0000e-05
  1.0000e-05  1.0000e-05  1.0000e-05  1.0000e-05  1.0000e-05  1.0000e-05  1.0000e-05  1.0000e-05  1.0000e-05  1.0000e-05
  1.0000e-05  1.0000e-05  1.0000e-05  1.0000e-05  1.0000e-05  1.0000e-05  1.0000e-05  1.0000e-05  1.0000e-05  1.0000e-05
  1.0000e-05  1.0000e-05  1.0000e-05  1.0000e-05  1.0000e-05  1.0000e-05  1.0000e-05  1.0000e-05  1.0000e-05  1.0000e-05
  1.0000e-05  1.0000e-05  1.0000e-05  1.0000e-05  1.0000e-05
        11     1.000(10e12.4)                   -1     HYDRAULIC CONDUCTIVITY Layer  12
  8.4758e-01  8.4758e-01  8.4758e-01  8.4758e-01  8.4758e-01  8.4758e-01  8.4758e-01  8.4758e-01  8.4758e-01  8.4758e-01
  8.4758e-01  8.4758e-01  8.4758e-01  8.4758e-01  8.4758e-01  8.4758e-01  8.4758e-01  8.4758e-01  8.4758e-01  8.4758e-01
  8.4758e-01  8.4758e-01  8.4758e-01  8.4758e-01  8.4758e-01  8.4758e-01  8.4758e-01  8.4758e-01  8.4758e-01  8.4758e-01
  8.4758e-01  8.4758e-01  8.4758e-01  8.4758e-01  8.4758e-01  8.4758e-01  8.4758e-01  8.4758e-01  8.4758e-01  8.4758e-01
  8.4758e-01  8.4758e-01  8.4758e-01  8.4758e-01  8.4758e-01
        11     1.000(10e12.4)                   -1     VERTICAL HYDRAULIC CONDUCTIVITY Layer  12
  8.4758e-01  8.4758e-01  8.4758e-01  8.4758e-01  8.4758e-01  8.4758e-01  8.4758e-01  8.4758e-01  8.4758e-01  8.4758e-01
  8.4758e-01  8.4758e-01  8.4758e-01  8.4758e-01  8.4758e-01  8.4758e-01  8.4758e-01  8.4758e-01  8.4758e-01  8.4758e-01
  8.4758e-01  8.4758e-01  8.4758e-01  8.4758e-01  8.4758e-01  8.4758e-01  8.4758e-01  8.4758e-01  8.4758e-01  8.4758e-01
  8.4758e-01  8.4758e-01  8.4758e-01  8.4758e-01  8.4758e-01  8.4758e-01  8.4758e-01  8.4758e-01  8.4758e-01  8.4758e-01
  8.4758e-01  8.4758e-01  8.4758e-01  8.4758e-01  8.4758e-01
        11     1.000(10e12.4)                   -1     PRIMARY STORAGE Layer  12
  1.0000e-05  1.0000e-05  1.0000e-05  1.0000e-05  1.0000e-05  1.0000e-05  1.0000e-05  1.0000e-05  1.0000e-05  1.0000e-05
  1.0000e-05  1.0000e-05  1.0000e-05  1.0000e-05  1.0000e-05  1.0000e-05  1.0000e-05  1.0000e-05  1.0000e-05  1.0000e-05
  1.0000e-05  1.0000e-05  1.0000e-05  1.0000e-05  1.0000e-05  1.0000e-05  1.0000e-05  1.0000e-05  1.0000e-05  1.0000e-05
  1.0000e-05  1.0000e-05  1.0000e-05  1.0000e-05  1.0000e-05  1.0000e-05  1.0000e-05  1.0000e-05  1.0000e-05  1.0000e-05
  1.0000e-05  1.0000e-05  1.0000e-05  1.0000e-05  1.0000e-05
        11     1.000(10e12.4)                   -1     HYDRAULIC CONDUCTIVITY Layer  13
  8.4758e-01  8.4758e-01  8.4758e-01  8.4758e-01  8.4758e-01  8.4758e-01  8.4758e-01  8.4758e-01  8.4758e-01  8.4758e-01
  8.4758e-01  8.4758e-01  8.4758e-01  8.4758e-01  8.4758e-01  8.4758e-01  8.4758e-01  8.4758e-01  8.4758e-01  8.4758e-01
  8.4758e-01  8.4758e-01  8.4758e-01  8.4758e-01  8.4758e-01  8.4758e-01  8.4758e-01  8.4758e-01  8.4758e-01  8.4758e-01
  8.4758e-01  8.4758e-01  8.4758e-01  8.4758e-01  8.4758e-01  8.4758e-01  8.4758e-01  8.4758e-01  8.4758e-01  8.4758e-01
  8.4758e-01  8.4758e-01  8.4758e-01  8.4758e-01  8.4758e-01
        11     1.000(10e12.4)                   -1     VERTICAL HYDRAULIC CONDUCTIVITY Layer  13
  8.4758e-01  8.4758e-01  8.4758e-01  8.4758e-01  8.4758e-01  8.4758e-01  8.4758e-01  8.4758e-01  8.4758e-01  8.4758e-01
  8.4758e-01  8.4758e-01  8.4758e-01  8.4758e-01  8.4758e-01  8.4758e-01  8.4758e-01  8.4758e-01  8.4758e-01  8.4758e-01
  8.4758e-01  8.4758e-01  8.4758e-01  8.4758e-01  8.4758e-01  8.4758e-01  8.4758e-01  8.4758e-01  8.4758e-01  8.4758e-01
  8.4758e-01  8.4758e-01  8.4758e-01  8.4758e-01  8.4758e-01  8.4758e-01  8.4758e-01  8.4758e-01  8.4758e-01  8.4758e-01
  8.4758e-01  8.4758e-01  8.4758e-01  8.4758e-01  8.4758e-01
        11     1.000(10e12.4)                   -1     PRIMARY STORAGE Layer  13
  1.0000e-05  1.0000e-05  1.0000e-05  1.0000e-05  1.0000e-05  1.0000e-05  1.0000e-05  1.0000e-05  1.0000e-05  1.0000e-05
  1.0000e-05  1.0000e-05  1.0000e-05  1.0000e-05  1.0000e-05  1.0000e-05  1.0000e-05  1.0000e-05  1.0000e-05  1.0000e-05
  1.0000e-05  1.0000e-05  1.0000e-05  1.0000e-05  1.0000e-05  1.0000e-05  1.0000e-05  1.0000e-05  1.0000e-05  1.0000e-05
  1.0000e-05  1.0000e-05  1.0000e-05  1.0000e-05  1.0000e-05  1.0000e-05  1.0000e-05  1.0000e-05  1.0000e-05  1.0000e-05
  1.0000e-05  1.0000e-05  1.0000e-05  1.0000e-05  1.0000e-05
        11     1.000(10e12.4)                   -1     HYDRAULIC CONDUCTIVITY Layer  14
  8.4758e-01  8.4758e-01  8.4758e-01  8.4758e-01  8.4758e-01  8.4758e-01  8.4758e-01  8.4758e-01  8.4758e-01  8.4758e-01
  8.4758e-01  8.4758e-01  8.4758e-01  8.4758e-01  8.4758e-01  8.4758e-01  8.4758e-01  8.4758e-01  8.4758e-01  8.4758e-01
  8.4758e-01  8.4758e-01  8.4758e-01  8.4758e-01  8.4758e-01  8.4758e-01  8.4758e-01  8.4758e-01  8.4758e-01  8.4758e-01
  8.4758e-01  8.4758e-01  8.4758e-01  8.4758e-01  8.4758e-01  8.4758e-01  8.4758e-01  8.4758e-01  8.4758e-01  8.4758e-01
  8.4758e-01  8.4758e-01  8.4758e-01  8.4758e-01  8.4758e-01
        11     1.000(10e12.4)                   -1     VERTICAL HYDRAULIC CONDUCTIVITY Layer  14
  8.4758e-01  8.4758e-01  8.4758e-01  8.4758e-01  8.4758e-01  8.4758e-01  8.4758e-01  8.4758e-01  8.4758e-01  8.4758e-01
  8.4758e-01  8.4758e-01  8.4758e-01  8.4758e-01  8.4758e-01  8.4758e-01  8.4758e-01  8.4758e-01  8.4758e-01  8.4758e-01
  8.4758e-01  8.4758e-01  8.4758e-01  8.4758e-01  8.4758e-01  8.4758e-01  8.4758e-01  8.4758e-01  8.4758e-01  8.4758e-01
  8.4758e-01  8.4758e-01  8.4758e-01  8.4758e-01  8.4758e-01  8.4758e-01  8.4758e-01  8.4758e-01  8.4758e-01  8.4758e-01
  8.4758e-01  8.4758e-01  8.4758e-01  8.4758e-01  8.4758e-01
        11     1.000(10e12.4)                   -1     PRIMARY STORAGE Layer  14
  1.0000e-05  1.0000e-05  1.0000e-05  1.0000e-05  1.0000e-05  1.0000e-05  1.0000e-05  1.0000e-05  1.0000e-05  1.0000e-05
  1.0000e-05  1.0000e-05  1.0000e-05  1.0000e-05  1.0000e-05  1.0000e-05  1.0000e-05  1.0000e-05  1.0000e-05  1.0000e-05
  1.0000e-05  1.0000e-05  1.0000e-05  1.0000e-05  1.0000e-05  1.0000e-05  1.0000e-05  1.0000e-05  1.0000e-05  1.0000e-05
  1.0000e-05  1.0000e-05  1.0000e-05  1.0000e-05  1.0000e-05  1.0000e-05  1.0000e-05  1.0000e-05  1.0000e-05  1.0000e-05
  1.0000e-05  1.0000e-05  1.0000e-05  1.0000e-05  1.0000e-05
        11     1.000(10e12.4)                   -1     HYDRAULIC CONDUCTIVITY Layer  15
  8.4758e-01  8.4758e-01  8.4758e-01  8.4758e-01  8.4758e-01  8.4758e-01  8.4758e-01  8.4758e-01  8.4758e-01  8.4758e-01
  8.4758e-01  8.4758e-01  8.4758e-01  8.4758e-01  8.4758e-01  8.4758e-01  8.4758e-01  8.4758e-01  8.4758e-01  8.4758e-01
  8.4758e-01  8.4758e-01  8.4758e-01  8.4758e-01  8.4758e-01  8.4758e-01  8.4758e-01  8.4758e-01  8.4758e-01  8.4758e-01
  8.4758e-01  8.4758e-01  8.4758e-01  8.4758e-01  8.4758e-01  8.4758e-01  8.4758e-01  8.4758e-01  8.4758e-01  8.4758e-01
  8.4758e-01  8.4758e-01  8.4758e-01  8.4758e-01  8.4758e-01
        11     1.000(10e12.4)                   -1     VERTICAL HYDRAULIC CONDUCTIVITY Layer  15
  8.4758e-01  8.4758e-01  8.4758e-01  8.4758e-01  8.4758e-01  8.4758e-01  8.4758e-01  8.4758e-01  8.4758e-01  8.4758e-01
  8.4758e-01  8.4758e-01  8.4758e-01  8.4758e-01  8.4758e-01  8.4758e-01  8.4758e-01  8.4758e-01  8.4758e-01  8.4758e-01
  8.4758e-01  8.4758e-01  8.4758e-01  8.4758e-01  8.4758e-01  8.4758e-01  8.4758e-01  8.4758e-01  8.4758e-01  8.4758e-01