# MODFLOW2000 Basic Package
#MODFLOW Data Set Created by Groundwater Vistas
#   

         0        -1(25I3)                      -1     IBOUND Layer   1
         0         1(25I3)                      -1     IBOUND Layer   2
         0         1(25I3)                      -1     IBOUND Layer   3
         0         1(25I3)                      -1     IBOUND Layer   4
         0         1(25I3)                      -1     IBOUND Layer   5
         0         1(25I3)                      -1     IBOUND Layer   6
         0         1(25I3)                      -1     IBOUND Layer   7
         0         1(25I3)                      -1     IBOUND Layer   8
         0         1(25I3)                      -1     IBOUND Layer   9
         0         1(25I3)                      -1     IBOUND Layer  10
         0         1(25I3)                      -1     IBOUND Layer  11
         0         1(25I3)                      -1     IBOUND Layer  12
         0         1(25I3)                      -1     IBOUND Layer  13
         0         1(25I3)                      -1     IBOUND Layer  14
         0         1(25I3)                      -1     IBOUND Layer  15
         0         1(25I3)                      -1     IBOUND Layer  16
         0         1(25I3)                      -1     IBOUND Layer  17
         0         1(25I3)                      -1     IBOUND Layer  18
         0         1(25I3)                      -1     IBOUND Layer  19
         0         1(25I3)                      -1     IBOUND Layer  20
         0         1(25I3)                      -1     IBOUND Layer  21
         0         1(25I3)                      -1     IBOUND Layer  22
         0         1(25I3)                      -1     IBOUND Layer  23
         0         1(25I3)                      -1     IBOUND Layer  24
         0         1(25I3)                      -1     IBOUND Layer  25
         0         1(25I3)                      -1     IBOUND Layer  26
         0         1(25I3)                      -1     IBOUND Layer  27
         0         1(25I3)                      -1     IBOUND Layer  28
         0         1(25I3)                      -1     IBOUND Layer  29
         0         1(25I3)                      -1     IBOUND Layer  30
         0         1(25I3)                      -1     IBOUND Layer  31
         0         1(25I3)                      -1     IBOUND Layer  32
         0         1(25I3)                      -1     IBOUND Layer  33
         0         1(25I3)                      -1     IBOUND Layer  34
         0         1(25I3)                      -1     IBOUND Layer  35
         0         1(25I3)                      -1     IBOUND Layer  36
         0         1(25I3)                      -1     IBOUND Layer  37
         0         1(25I3)                      -1     IBOUND Layer  38
         0         1(25I3)                      -1     IBOUND Layer  39
         0         1(25I3)                      -1     IBOUND Layer  40
         0         1(25I3)                      -1     IBOUND Layer  41
         0         1(25I3)                      -1     IBOUND Layer  42
         0         1(25I3)                      -1     IBOUND Layer  43
         0         1(25I3)                      -1     IBOUND Layer  44
         0         1(25I3)                      -1     IBOUND Layer  45
         0         1(25I3)                      -1     IBOUND Layer  46
         0         1(25I3)                      -1     IBOUND Layer  47
         0         1(25I3)                      -1     IBOUND Layer  48
         0         1(25I3)                      -1     IBOUND Layer  49
         0         1(25I3)                      -1     IBOUND Layer  50
         0         1(25I3)                      -1     IBOUND Layer  51
         0         1(25I3)                      -1     IBOUND Layer  52
         0         1(25I3)                      -1     IBOUND Layer  53
         0         1(25I3)                      -1     IBOUND Layer  54
         0         1(25I3)                      -1     IBOUND Layer  55
         0         1(25I3)                      -1     IBOUND Layer  56
         0         1(25I3)                      -1     IBOUND Layer  57
         0         1(25I3)                      -1     IBOUND Layer  58
         0         1(25I3)                      -1     IBOUND Layer  59
         0         1(25I3)                      -1     IBOUND Layer  60
         0         1(25I3)                      -1     IBOUND Layer  61
         0         1(25I3)                      -1     IBOUND Layer  62
         0         1(25I3)                      -1     IBOUND Layer  63
         0         1(25I3)                      -1     IBOUND Layer  64
         0         1(25I3)                      -1     IBOUND Layer  65
         0         1(25I3)                      -1     IBOUND Layer  66
         0         1(25I3)                      -1     IBOUND Layer  67
         0         1(25I3)                      -1     IBOUND Layer  68
         0         1(25I3)                      -1     IBOUND Layer  69
         0         1(25I3)                      -1     IBOUND Layer  70
         0         1(25I3)                      -1     IBOUND Layer  71
         0         1(25I3)                      -1     IBOUND Layer  72
         0         1(25I3)                      -1     IBOUND Layer  73
         0         1(25I3)                      -1     IBOUND Layer  74
         0         1(25I3)                      -1     IBOUND Layer  75
         1         1(25I3)                      -1     IBOUND Layer  76
  0  0  0  0  0  0  0  0  0  0  0  0  0  0  0  1  1  1  1  1  1  1  1  1  1
  1  1  1  1  1  0  0  0  0  0  0  0  0  0  0  0  0  0  0  0
9.9900e+02
         1     1.000(10e12.4)                   -1     STARTING HEADS Layer   1
  1.0072e+01  9.8454e+00  9.6190e+00  9.3926e+00  9.1662e+00  8.9397e+00  8.7133e+00  8.4869e+00  8.2605e+00  8.0341e+00
  7.8077e+00  7.5813e+00  7.3549e+00  7.1285e+00  6.9021e+00  6.6757e+00  6.4492e+00  6.2228e+00  5.9964e+00  5.7700e+00
  5.5436e+00  5.3172e+00  5.0908e+00  4.8644e+00  4.6380e+00  4.4116e+00  4.1852e+00  3.9587e+00  3.7323e+00  3.5059e+00
  3.2795e+00  3.0531e+00  2.8267e+00  2.6003e+00  2.3739e+00  2.1475e+00  1.9211e+00  1.6947e+00  1.4682e+00  1.2418e+00
  1.0154e+00  7.8902e-01  5.6261e-01  3.3621e-01  1.1150e-01
         00.0000e+00(10e12.4)                   -1     STARTING HEADS Layer   2
         00.0000e+00(10e12.4)                   -1     STARTING HEADS Layer   3
         00.0000e+00(10e12.4)                   -1     STARTING HEADS Layer   4
         00.0000e+00(10e12.4)                   -1     STARTING HEADS Layer   5
         00.0000e+00(10e12.4)                   -1     STARTING HEADS Layer   6
         00.0000e+00(10e12.4)                   -1     STARTING HEADS Layer   7
         00.0000e+00(10e12.4)                   -1     STARTING HEADS Layer   8
         00.0000e+00(10e12.4)                   -1     STARTING HEADS Layer   9
         00.0000e+00(10e12.4)                   -1     STARTING HEADS Layer  10
         00.0000e+00(10e12.4)                   -1     STARTING HEADS Layer  11
         00.0000e+00(10e12.4)                   -1     STARTING HEADS Layer  12
         00.0000e+00(10e12.4)                   -1     STARTING HEADS Layer  13
         00.0000e+00(10e12.4)                   -1     STARTING HEADS Layer  14
         00.0000e+00(10e12.4)                   -1     STARTING HEADS Layer  15
         00.0000e+00(10e12.4)                   -1     STARTING HEADS Layer  16
         00.0000e+00(10e12.4)                   -1     STARTING HEADS Layer  17
         00.0000e+00(10e12.4)                   -1     STARTING HEADS Layer  18
         00.0000e+00(10e12.4)                   -1     STARTING HEADS Layer  19
         00.0000e+00(10e12.4)                   -1     STARTING HEADS Layer  20
         00.0000e+00(10e12.4)                   -1     STARTING HEADS Layer  21
         00.0000e+00(10e12.4)                   -1     STARTING HEADS Layer  22
         00.0000e+00(10e12.4)                   -1     STARTING HEADS Layer  23
         00.0000e+00(10e12.4)                   -1     STARTING HEADS Layer  24
         00.0000e+00(10e12.4)                   -1     STARTING HEADS Layer  25
         00.0000e+00(10e12.4)                   -1     STARTING HEADS Layer  26
         00.0000e+00(10e12.4)                   -1     STARTING HEADS Layer  27
         00.0000e+00(10e12.4)                   -1     STARTING HEADS Layer  28
         00.0000e+00(10e12.4)                   -1     STARTING HEADS Layer  29
         00.0000e+00(10e12.4)                   -1     STARTING HEADS Layer  30
         00.0000e+00(10e12.4)                   -1     STARTING HEADS Layer  31
         00.0000e+00(10e12.4)                   -1     STARTING HEADS Layer  32
         00.0000e+00(10e12.4)                   -1     STARTING HEADS Layer  33
         00.0000e+00(10e12.4)                   -1     STARTING HEADS Layer  34
         00.0000e+00(10e12.4)                   -1     STARTING HEADS Layer  35
         00.0000e+00(10e12.4)                   -1     STARTING HEADS Layer  36
         00.0000e+00(10e12.4)                   -1     STARTING HEADS Layer  37
         00.0000e+00(10e12.4)                   -1     STARTING HEADS Layer  38
         00.0000e+00(10e12.4)                   -1     STARTING HEADS Layer  39
         00.0000e+00(10e12.4)                   -1     STARTING HEADS Layer  40
         00.0000e+00(10e12.4)                   -1     STARTING HEADS Layer  41
         00.0000e+00(10e12.4)                   -1     STARTING HEADS Layer  42
         00.0000e+00(10e12.4)                   -1     STARTING HEADS Layer  43
         00.0000e+00(10e12.4)                   -1     STARTING HEADS Layer  44
         00.0000e+00(10e12.4)                   -1     STARTING HEADS Layer  45
         00.0000e+00(10e12.4)                   -1     STARTING HEADS Layer  46
         00.0000e+00(10e12.4)                   -1     STARTING HEADS Layer  47
         00.0000e+00(10e12.4)                   -1     STARTING HEADS Layer  48
         00.0000e+00(10e12.4)                   -1     STARTING HEADS Layer  49
         00.0000e+00(10e12.4)                   -1     STARTING HEADS Layer  50
         00.0000e+00(10e12.4)                   -1     STARTING HEADS Layer  51
         00.0000e+00(10e12.4)                   -1     STARTING HEADS Layer  52
         00.0000e+00(10e12.4)                   -1     STARTING HEADS Layer  53
         00.0000e+00(10e12.4)                   -1     STARTING HEADS Layer  54
         00.0000e+00(10e12.4)                   -1     STARTING HEADS Layer  55
         00.0000e+00(10e12.4)                   -1     STARTING HEADS Layer  56
         00.0000e+00(10e12.4)                   -1     STARTING HEADS Layer  57
         00.0000e+00(10e12.4)                   -1     STARTING HEADS Layer  58
         00.0000e+00(10e12.4)                   -1     STARTING HEADS Layer  59
         00.0000e+00(10e12.4)                   -1     STARTING HEADS Layer  60
         00.0000e+00(10e12.4)                   -1     STARTING HEADS Layer  61
         00.0000e+00(10e12.4)                   -1     STARTING HEADS Layer  62
         00.0000e+00(10e12.4)                   -1     STARTING HEADS Layer  63
         00.0000e+00(10e12.4)                   -1     STARTING HEADS Layer  64
         00.0000e+00(10e12.4)                   -1     STARTING HEADS Layer  65
         00.0000e+00(10e12.4)                   -1     STARTING HEADS Layer  66
         00.0000e+00(10e12.4)                   -1     STARTING HEADS Layer  67
         00.0000e+00(10e12.4)                   -1     STARTING HEADS Layer  68
         00.0000e+00(10e12.4)                   -1     STARTING HEADS Layer  69
         00.0000e+00(10e12.4)                   -1     STARTING HEADS Layer  70
         00.0000e+00(10e12.4)                   -1     STARTING HEADS Layer  71
         00.0000e+00(10e12.4)                   -1     STARTING HEADS Layer  72
         00.0000e+00(10e12.4)                   -1     STARTING HEADS Layer  73
         00.0000e+00(10e12.4)                   -1     STARTING HEADS Layer  74
         00.0000e+00(10e12.4)                   -1     STARTING HEADS Layer  75
         00.0000e+00(10e12.4)                   -1     STARTING HEADS Layer  76
