# File generated by Flopy version 3.5.0.dev0 on 10/30/2023 at 09:06:41.
BEGIN options
  PRINT_FLOWS
END options

BEGIN dimensions
  MAXBOUND  20
END dimensions

BEGIN period  1
  4 10 1.40000000E+01 1.00000000E+04
  4 20 1.40000000E+01 1.00000000E+04
  4 30 1.40000000E+01 1.00000000E+04
  4 40 1.40000000E+01 1.00000000E+04
  4 50 1.40000000E+01 1.00000000E+04
  4 60 1.40000000E+01 1.00000000E+04
  4 70 1.40000000E+01 1.00000000E+04
  4 80 1.40000000E+01 1.00000000E+04
  4 90 1.40000000E+01 1.00000000E+04
  4 100 1.40000000E+01 1.00000000E+04
  5 10 1.40000000E+01 1.00000000E+04
  5 20 1.40000000E+01 1.00000000E+04
  5 30 1.40000000E+01 1.00000000E+04
  5 40 1.40000000E+01 1.00000000E+04
  5 50 1.40000000E+01 1.00000000E+04
  5 60 1.40000000E+01 1.00000000E+04
  5 70 1.40000000E+01 1.00000000E+04
  5 80 1.40000000E+01 1.00000000E+04
  5 90 1.40000000E+01 1.00000000E+04
  5 100 1.40000000E+01 1.00000000E+04
END period  1

