# File generated by Flopy version 3.5.0.dev0 on 10/30/2023 at 09:06:41.
BEGIN options
  SAVE_FLOWS
END options

BEGIN griddata
  icelltype
    CONSTANT  1
  k
    CONSTANT       0.10000000
  k33
    CONSTANT       1.00000000
END griddata

