# File generated by Flopy version 3.5.0.dev0 on 10/30/2023 at 09:06:41.
BEGIN options
  BOUNDNAMES
  PRINT_FLOWS
  SAVE_FLOWS
  BUDGET  FILEOUT  disv_with_uzf.uzf.bud
  OBS6  FILEIN  disv_with_uzf.uzf.obs
  SIMULATE_ET
  LINEAR_GWET
  SIMULATE_GWSEEP
END options

BEGIN dimensions
  NUZFCELLS  500
  NTRAILWAVES  15
  NWAVESETS  40
END dimensions

BEGIN packagedata
  1  1 1  1  101       0.25000000      10.00000000       0.05000000       0.30000000       0.15000000       3.50000000  uzf001
  2  1 2  1  102       0.25000000      10.00000000       0.05000000       0.30000000       0.15000000       3.50000000  uzf002
  3  1 3  1  103       0.25000000      10.00000000       0.05000000       0.30000000       0.15000000       3.50000000  uzf003
  4  1 4  1  104       0.25000000      10.00000000       0.05000000       0.30000000       0.15000000       3.50000000  uzf004
  5  1 5  1  105       0.25000000      10.00000000       0.05000000       0.30000000       0.15000000       3.50000000  uzf005
  6  1 6  1  106       0.25000000      10.00000000       0.05000000       0.30000000       0.15000000       3.50000000  uzf006
  7  1 7  1  107       0.25000000      10.00000000       0.05000000       0.30000000       0.15000000       3.50000000  uzf007
  8  1 8  1  108       0.25000000      10.00000000       0.05000000       0.30000000       0.15000000       3.50000000  uzf008
  9  1 9  1  109       0.25000000      10.00000000       0.05000000       0.30000000       0.15000000       3.50000000  uzf009
  10  1 10  1  110       0.25000000      10.00000000       0.05000000       0.30000000       0.15000000       3.50000000  uzf010
  11  1 11  1  111       0.25000000      10.00000000       0.05000000       0.30000000       0.15000000       3.50000000  uzf011
  12  1 12  1  112       0.25000000      10.00000000       0.05000000       0.30000000       0.15000000       3.50000000  uzf012
  13  1 13  1  113       0.25000000      10.00000000       0.05000000       0.30000000       0.15000000       3.50000000  uzf013
  14  1 14  1  114       0.25000000      10.00000000       0.05000000       0.30000000       0.15000000       3.50000000  uzf014
  15  1 15  1  115       0.25000000      10.00000000       0.05000000       0.30000000       0.15000000       3.50000000  uzf015
  16  1 16  1  116       0.25000000      10.00000000       0.05000000       0.30000000       0.15000000       3.50000000  uzf016
  17  1 17  1  117       0.25000000      10.00000000       0.05000000       0.30000000       0.15000000       3.50000000  uzf017
  18  1 18  1  118       0.25000000      10.00000000       0.05000000       0.30000000       0.15000000       3.50000000  uzf018
  19  1 19  1  119       0.25000000      10.00000000       0.05000000       0.30000000       0.15000000       3.50000000  uzf019
  20  1 20  1  120       0.25000000      10.00000000       0.05000000       0.30000000       0.15000000       3.50000000  uzf020
  21  1 21  1  121       0.25000000      10.00000000       0.05000000       0.30000000       0.15000000       3.50000000  uzf021
  22  1 22  1  122       0.25000000      10.00000000       0.05000000       0.30000000       0.15000000       3.50000000  uzf022
  23  1 23  1  123       0.25000000      10.00000000       0.05000000       0.30000000       0.15000000       3.50000000  uzf023
  24  1 24  1  124       0.25000000      10.00000000       0.05000000       0.30000000       0.15000000       3.50000000  uzf024
  25  1 25  1  125       0.25000000      10.00000000       0.05000000       0.30000000       0.15000000       3.50000000  uzf025
  26  1 26  1  126       0.25000000      10.00000000       0.05000000       0.30000000       0.15000000       3.50000000  uzf026
  27  1 27  1  127       0.25000000      10.00000000       0.05000000       0.30000000       0.15000000       3.50000000  uzf027
  28  1 28  1  128       0.25000000      10.00000000       0.05000000       0.30000000       0.15000000       3.50000000  uzf028
  29  1 29  1  129       0.25000000      10.00000000       0.05000000       0.30000000       0.15000000       3.50000000  uzf029
  30  1 30  1  130       0.25000000      10.00000000       0.05000000       0.30000000       0.15000000       3.50000000  uzf030
  31  1 31  1  131       0.25000000      10.00000000       0.05000000       0.30000000       0.15000000       3.50000000  uzf031
  32  1 32  1  132       0.25000000      10.00000000       0.05000000       0.30000000       0.15000000       3.50000000  uzf032
  33  1 33  1  133       0.25000000      10.00000000       0.05000000       0.30000000       0.15000000       3.50000000  uzf033
  34  1 34  1  134       0.25000000      10.00000000       0.05000000       0.30000000       0.15000000       3.50000000  uzf034
  35  1 35  1  135       0.25000000      10.00000000       0.05000000       0.30000000       0.15000000       3.50000000  uzf035
  36  1 36  1  136       0.25000000      10.00000000       0.05000000       0.30000000       0.15000000       3.50000000  uzf036
  37  1 37  1  137       0.25000000      10.00000000       0.05000000       0.30000000       0.15000000       3.50000000  uzf037
  38  1 38  1  138       0.25000000      10.00000000       0.05000000       0.30000000       0.15000000       3.50000000  uzf038
  39  1 39  1  139       0.25000000      10.00000000       0.05000000       0.30000000       0.15000000       3.50000000  uzf039
  40  1 40  1  140       0.25000000      10.00000000       0.05000000       0.30000000       0.15000000       3.50000000  uzf040
  41  1 41  1  141       0.25000000      10.00000000       0.05000000       0.30000000       0.15000000       3.50000000  uzf041
  42  1 42  1  142       0.25000000      10.00000000       0.05000000       0.30000000       0.15000000       3.50000000  uzf042
  43  1 43  1  143       0.25000000      10.00000000       0.05000000       0.30000000       0.15000000       3.50000000  uzf043
  44  1 44  1  144       0.25000000      10.00000000       0.05000000       0.30000000       0.15000000       3.50000000  uzf044
  45  1 45  1  145       0.25000000      10.00000000       0.05000000       0.30000000       0.15000000       3.50000000  uzf045
  46  1 46  1  146       0.25000000      10.00000000       0.05000000       0.30000000       0.15000000       3.50000000  uzf046
  47  1 47  1  147       0.25000000      10.00000000       0.05000000       0.30000000       0.15000000       3.50000000  uzf047
  48  1 48  1  148       0.25000000      10.00000000       0.05000000       0.30000000       0.15000000       3.50000000  uzf048
  49  1 49  1  149       0.25000000      10.00000000       0.05000000       0.30000000       0.15000000       3.50000000  uzf049
  50  1 50  1  150       0.25000000      10.00000000       0.05000000       0.30000000       0.15000000       3.50000000  uzf050
  51  1 51  1  151       0.25000000      10.00000000       0.05000000       0.30000000       0.15000000       3.50000000  uzf051
  52  1 52  1  152       0.25000000      10.00000000       0.05000000       0.30000000       0.15000000       3.50000000  uzf052
  53  1 53  1  153       0.25000000      10.00000000       0.05000000       0.30000000       0.15000000       3.50000000  uzf053
  54  1 54  1  154       0.25000000      10.00000000       0.05000000       0.30000000       0.15000000       3.50000000  uzf054
  55  1 55  1  155       0.25000000      10.00000000       0.05000000       0.30000000       0.15000000       3.50000000  uzf055
  56  1 56  1  156       0.25000000      10.00000000       0.05000000       0.30000000       0.15000000       3.50000000  uzf056
  57  1 57  1  157       0.25000000      10.00000000       0.05000000       0.30000000       0.15000000       3.50000000  uzf057
  58  1 58  1  158       0.25000000      10.00000000       0.05000000       0.30000000       0.15000000       3.50000000  uzf058
  59  1 59  1  159       0.25000000      10.00000000       0.05000000       0.30000000       0.15000000       3.50000000  uzf059
  60  1 60  1  160       0.25000000      10.00000000       0.05000000       0.30000000       0.15000000       3.50000000  uzf060
  61  1 61  1  161       0.25000000      10.00000000       0.05000000       0.30000000       0.15000000       3.50000000  uzf061
  62  1 62  1  162       0.25000000      10.00000000       0.05000000       0.30000000       0.15000000       3.50000000  uzf062
  63  1 63  1  163       0.25000000      10.00000000       0.05000000       0.30000000       0.15000000       3.50000000  uzf063
  64  1 64  1  164       0.25000000      10.00000000       0.05000000       0.30000000       0.15000000       3.50000000  uzf064
  65  1 65  1  165       0.25000000      10.00000000       0.05000000       0.30000000       0.15000000       3.50000000  uzf065
  66  1 66  1  166       0.25000000      10.00000000       0.05000000       0.30000000       0.15000000       3.50000000  uzf066
  67  1 67  1  167       0.25000000      10.00000000       0.05000000       0.30000000       0.15000000       3.50000000  uzf067
  68  1 68  1  168       0.25000000      10.00000000       0.05000000       0.30000000       0.15000000       3.50000000  uzf068
  69  1 69  1  169       0.25000000      10.00000000       0.05000000       0.30000000       0.15000000       3.50000000  uzf069
  70  1 70  1  170       0.25000000      10.00000000       0.05000000       0.30000000       0.15000000       3.50000000  uzf070
  71  1 71  1  171       0.25000000      10.00000000       0.05000000       0.30000000       0.15000000       3.50000000  uzf071
  72  1 72  1  172       0.25000000      10.00000000       0.05000000       0.30000000       0.15000000       3.50000000  uzf072
  73  1 73  1  173       0.25000000      10.00000000       0.05000000       0.30000000       0.15000000       3.50000000  uzf073
  74  1 74  1  174       0.25000000      10.00000000       0.05000000       0.30000000       0.15000000       3.50000000  uzf074
  75  1 75  1  175       0.25000000      10.00000000       0.05000000       0.30000000       0.15000000       3.50000000  uzf075
  76  1 76  1  176       0.25000000      10.00000000       0.05000000       0.30000000       0.15000000       3.50000000  uzf076
  77  1 77  1  177       0.25000000      10.00000000       0.05000000       0.30000000       0.15000000       3.50000000  uzf077
  78  1 78  1  178       0.25000000      10.00000000       0.05000000       0.30000000       0.15000000       3.50000000  uzf078
  79  1 79  1  179       0.25000000      10.00000000       0.05000000       0.30000000       0.15000000       3.50000000  uzf079
  80  1 80  1  180       0.25000000      10.00000000       0.05000000       0.30000000       0.15000000       3.50000000  uzf080
  81  1 81  1  181       0.25000000      10.00000000       0.05000000       0.30000000       0.15000000       3.50000000  uzf081
  82  1 82  1  182       0.25000000      10.00000000       0.05000000       0.30000000       0.15000000       3.50000000  uzf082
  83  1 83  1  183       0.25000000      10.00000000       0.05000000       0.30000000       0.15000000       3.50000000  uzf083
  84  1 84  1  184       0.25000000      10.00000000       0.05000000       0.30000000       0.15000000       3.50000000  uzf084
  85  1 85  1  185       0.25000000      10.00000000       0.05000000       0.30000000       0.15000000       3.50000000  uzf085
  86  1 86  1  186       0.25000000      10.00000000       0.05000000       0.30000000       0.15000000       3.50000000  uzf086
  87  1 87  1  187       0.25000000      10.00000000       0.05000000       0.30000000       0.15000000       3.50000000  uzf087
  88  1 88  1  188       0.25000000      10.00000000       0.05000000       0.30000000       0.15000000       3.50000000  uzf088
  89  1 89  1  189       0.25000000      10.00000000       0.05000000       0.30000000       0.15000000       3.50000000  uzf089
  90  1 90  1  190       0.25000000      10.00000000       0.05000000       0.30000000       0.15000000       3.50000000  uzf090
  91  1 91  1  191       0.25000000      10.00000000       0.05000000       0.30000000       0.15000000       3.50000000  uzf091
  92  1 92  1  192       0.25000000      10.00000000       0.05000000       0.30000000       0.15000000       3.50000000  uzf092
  93  1 93  1  193       0.25000000      10.00000000       0.05000000       0.30000000       0.15000000       3.50000000  uzf093
  94  1 94  1  194       0.25000000      10.00000000       0.05000000       0.30000000       0.15000000       3.50000000  uzf094
  95  1 95  1  195       0.25000000      10.00000000       0.05000000       0.30000000       0.15000000       3.50000000  uzf095
  96  1 96  1  196       0.25000000      10.00000000       0.05000000       0.30000000       0.15000000       3.50000000  uzf096
  97  1 97  1  197       0.25000000      10.00000000       0.05000000       0.30000000       0.15000000       3.50000000  uzf097
  98  1 98  1  198       0.25000000      10.00000000       0.05000000       0.30000000       0.15000000       3.50000000  uzf098
  99  1 99  1  199       0.25000000      10.00000000       0.05000000       0.30000000       0.15000000       3.50000000  uzf099
  100  1 100  1  200       0.25000000      10.00000000       0.05000000       0.30000000       0.15000000       3.50000000  uzf100
  101  2 1  0  201  1.00000000E-06      10.00000000       0.05000000       0.30000000       0.15000000       3.50000000  uzf001
  102  2 2  0  202  1.00000000E-06      10.00000000       0.05000000       0.30000000       0.15000000       3.50000000  uzf002
  103  2 3  0  203  1.00000000E-06      10.00000000       0.05000000       0.30000000       0.15000000       3.50000000  uzf003
  104  2 4  0  204  1.00000000E-06      10.00000000       0.05000000       0.30000000       0.15000000       3.50000000  uzf004
  105  2 5  0  205  1.00000000E-06      10.00000000       0.05000000       0.30000000       0.15000000       3.50000000  uzf005
  106  2 6  0  206  1.00000000E-06      10.00000000       0.05000000       0.30000000       0.15000000       3.50000000  uzf006
  107  2 7  0  207  1.00000000E-06      10.00000000       0.05000000       0.30000000       0.15000000       3.50000000  uzf007
  108  2 8  0  208  1.00000000E-06      10.00000000       0.05000000       0.30000000       0.15000000       3.50000000  uzf008
  109  2 9  0  209  1.00000000E-06      10.00000000       0.05000000       0.30000000       0.15000000       3.50000000  uzf009
  110  2 10  0  210  1.00000000E-06      10.00000000       0.05000000       0.30000000       0.15000000       3.50000000  uzf010
  111  2 11  0  211  1.00000000E-06      10.00000000       0.05000000       0.30000000       0.15000000       3.50000000  uzf011
  112  2 12  0  212  1.00000000E-06      10.00000000       0.05000000       0.30000000       0.15000000       3.50000000  uzf012
  113  2 13  0  213  1.00000000E-06      10.00000000       0.05000000       0.30000000       0.15000000       3.50000000  uzf013
  114  2 14  0  214  1.00000000E-06      10.00000000       0.05000000       0.30000000       0.15000000       3.50000000  uzf014
  115  2 15  0  215  1.00000000E-06      10.00000000       0.05000000       0.30000000       0.15000000       3.50000000  uzf015
  116  2 16  0  216  1.00000000E-06      10.00000000       0.05000000       0.30000000       0.15000000       3.50000000  uzf016
  117  2 17  0  217  1.00000000E-06      10.00000000       0.05000000       0.30000000       0.15000000       3.50000000  uzf017
  118  2 18  0  218  1.00000000E-06      10.00000000       0.05000000       0.30000000       0.15000000       3.50000000  uzf018
  119  2 19  0  219  1.00000000E-06      10.00000000       0.05000000       0.30000000       0.15000000       3.50000000  uzf019
  120  2 20  0  220  1.00000000E-06      10.00000000       0.05000000       0.30000000       0.15000000       3.50000000  uzf020
  121  2 21  0  221  1.00000000E-06      10.00000000       0.05000000       0.30000000       0.15000000       3.50000000  uzf021
  122  2 22  0  222  1.00000000E-06      10.00000000       0.05000000       0.30000000       0.15000000       3.50000000  uzf022
  123  2 23  0  223  1.00000000E-06      10.00000000       0.05000000       0.30000000       0.15000000       3.50000000  uzf023
  124  2 24  0  224  1.00000000E-06      10.00000000       0.05000000       0.30000000       0.15000000       3.50000000  uzf024
  125  2 25  0  225  1.00000000E-06      10.00000000       0.05000000       0.30000000       0.15000000       3.50000000  uzf025
  126  2 26  0  226  1.00000000E-06      10.00000000       0.05000000       0.30000000       0.15000000       3.50000000  uzf026
  127  2 27  0  227  1.00000000E-06      10.00000000       0.05000000       0.30000000       0.15000000       3.50000000  uzf027
  128  2 28  0  228  1.00000000E-06      10.00000000       0.05000000       0.30000000       0.15000000       3.50000000  uzf028
  129  2 29  0  229  1.00000000E-06      10.00000000       0.05000000       0.30000000       0.15000000       3.50000000  uzf029
  130  2 30  0  230  1.00000000E-06      10.00000000       0.05000000       0.30000000       0.15000000       3.50000000  uzf030
  131  2 31  0  231  1.00000000E-06      10.00000000       0.05000000       0.30000000       0.15000000       3.50000000  uzf031
  132  2 32  0  232  1.00000000E-06      10.00000000       0.05000000       0.30000000       0.15000000       3.50000000  uzf032
  133  2 33  0  233  1.00000000E-06      10.00000000       0.05000000       0.30000000       0.15000000       3.50000000  uzf033
  134  2 34  0  234  1.00000000E-06      10.00000000       0.05000000       0.30000000       0.15000000       3.50000000  uzf034
  135  2 35  0  235  1.00000000E-06      10.00000000       0.05000000       0.30000000       0.15000000       3.50000000  uzf035
  136  2 36  0  236  1.00000000E-06      10.00000000       0.05000000       0.30000000       0.15000000       3.50000000  uzf036
  137  2 37  0  237  1.00000000E-06      10.00000000       0.05000000       0.30000000       0.15000000       3.50000000  uzf037
  138  2 38  0  238  1.00000000E-06      10.00000000       0.05000000       0.30000000       0.15000000       3.50000000  uzf038
  139  2 39  0  239  1.00000000E-06      10.00000000       0.05000000       0.30000000       0.15000000       3.50000000  uzf039
  140  2 40  0  240  1.00000000E-06      10.00000000       0.05000000       0.30000000       0.15000000       3.50000000  uzf040
  141  2 41  0  241  1.00000000E-06      10.00000000       0.05000000       0.30000000       0.15000000       3.50000000  uzf041
  142  2 42  0  242  1.00000000E-06      10.00000000       0.05000000       0.30000000       0.15000000       3.50000000  uzf042
  143  2 43  0  243  1.00000000E-06      10.00000000       0.05000000       0.30000000       0.15000000       3.50000000  uzf043
  144  2 44  0  244  1.00000000E-06      10.00000000       0.05000000       0.30000000       0.15000000       3.50000000  uzf044
  145  2 45  0  245  1.00000000E-06      10.00000000       0.05000000       0.30000000       0.15000000       3.50000000  uzf045
  146  2 46  0  246  1.00000000E-06      10.00000000       0.05000000       0.30000000       0.15000000       3.50000000  uzf046
  147  2 47  0  247  1.00000000E-06      10.00000000       0.05000000       0.30000000       0.15000000       3.50000000  uzf047
  148  2 48  0  248  1.00000000E-06      10.00000000       0.05000000       0.30000000       0.15000000       3.50000000  uzf048
  149  2 49  0  249  1.00000000E-06      10.00000000       0.05000000       0.30000000       0.15000000       3.50000000  uzf049
  150  2 50  0  250  1.00000000E-06      10.00000000       0.05000000       0.30000000       0.15000000       3.50000000  uzf050
  151  2 51  0  251  1.00000000E-06      10.00000000       0.05000000       0.30000000       0.15000000       3.50000000  uzf051
  152  2 52  0  252  1.00000000E-06      10.00000000       0.05000000       0.30000000       0.15000000       3.50000000  uzf052
  153  2 53  0  253  1.00000000E-06      10.00000000       0.05000000       0.30000000       0.15000000       3.50000000  uzf053
  154  2 54  0  254  1.00000000E-06      10.00000000       0.05000000       0.30000000       0.15000000       3.50000000  uzf054
  155  2 55  0  255  1.00000000E-06      10.00000000       0.05000000       0.30000000       0.15000000       3.50000000  uzf055
  156  2 56  0  256  1.00000000E-06      10.00000000       0.05000000       0.30000000       0.15000000       3.50000000  uzf056
  157  2 57  0  257  1.00000000E-06      10.00000000       0.05000000       0.30000000       0.15000000       3.50000000  uzf057
  158  2 58  0  258  1.00000000E-06      10.00000000       0.05000000       0.30000000       0.15000000       3.50000000  uzf058
  159  2 59  0  259  1.00000000E-06      10.00000000       0.05000000       0.30000000       0.15000000       3.50000000  uzf059
  160  2 60  0  260  1.00000000E-06      10.00000000       0.05000000       0.30000000       0.15000000       3.50000000  uzf060
  161  2 61  0  261  1.00000000E-06      10.00000000       0.05000000       0.30000000       0.15000000       3.50000000  uzf061
  162  2 62  0  262  1.00000000E-06      10.00000000       0.05000000       0.30000000       0.15000000       3.50000000  uzf062
  163  2 63  0  263  1.00000000E-06      10.00000000       0.05000000       0.30000000       0.15000000       3.50000000  uzf063
  164  2 64  0  264  1.00000000E-06      10.00000000       0.05000000       0.30000000       0.15000000       3.50000000  uzf064
  165  2 65  0  265  1.00000000E-06      10.00000000       0.05000000       0.30000000       0.15000000       3.50000000  uzf065
  166  2 66  0  266  1.00000000E-06      10.00000000       0.05000000       0.30000000       0.15000000       3.50000000  uzf066
  167  2 67  0  267  1.00000000E-06      10.00000000       0.05000000       0.30000000       0.15000000       3.50000000  uzf067
  168  2 68  0  268  1.00000000E-06      10.00000000       0.05000000       0.30000000       0.15000000       3.50000000  uzf068
  169  2 69  0  269  1.00000000E-06      10.00000000       0.05000000       0.30000000       0.15000000       3.50000000  uzf069
  170  2 70  0  270  1.00000000E-06      10.00000000       0.05000000       0.30000000       0.15000000       3.50000000  uzf070
  171  2 71  0  271  1.00000000E-06      10.00000000       0.05000000       0.30000000       0.15000000       3.50000000  uzf071
  172  2 72  0  272  1.00000000E-06      10.00000000       0.05000000       0.30000000       0.15000000       3.50000000  uzf072
  173  2 73  0  273  1.00000000E-06      10.00000000       0.05000000       0.30000000       0.15000000       3.50000000  uzf073
  174  2 74  0  274  1.00000000E-06      10.00000000       0.05000000       0.30000000       0.15000000       3.50000000  uzf074
  175  2 75  0  275  1.00000000E-06      10.00000000       0.05000000       0.30000000       0.15000000       3.50000000  uzf075
  176  2 76  0  276  1.00000000E-06      10.00000000       0.05000000       0.30000000       0.15000000       3.50000000  uzf076
  177  2 77  0  277  1.00000000E-06      10.00000000       0.05000000       0.30000000       0.15000000       3.50000000  uzf077
  178  2 78  0  278  1.00000000E-06      10.00000000       0.05000000       0.30000000       0.15000000       3.50000000  uzf078
  179  2 79  0  279  1.00000000E-06      10.00000000       0.05000000       0.30000000       0.15000000       3.50000000  uzf079
  180  2 80  0  280  1.00000000E-06      10.00000000       0.05000000       0.30000000       0.15000000       3.50000000  uzf080
  181  2 81  0  281  1.00000000E-06      10.00000000       0.05000000       0.30000000       0.15000000       3.50000000  uzf081
  182  2 82  0  282  1.00000000E-06      10.00000000       0.05000000       0.30000000       0.15000000       3.50000000  uzf082
  183  2 83  0  283  1.00000000E-06      10.00000000       0.05000000       0.30000000       0.15000000       3.50000000  uzf083
  184  2 84  0  284  1.00000000E-06      10.00000000       0.05000000       0.30000000       0.15000000       3.50000000  uzf084
  185  2 85  0  285  1.00000000E-06      10.00000000       0.05000000       0.30000000       0.15000000       3.50000000  uzf085
  186  2 86  0  286  1.00000000E-06      10.00000000       0.05000000       0.30000000       0.15000000       3.50000000  uzf086
  187  2 87  0  287  1.00000000E-06      10.00000000       0.05000000       0.30000000       0.15000000       3.50000000  uzf087
  188  2 88  0  288  1.00000000E-06      10.00000000       0.05000000       0.30000000       0.15000000       3.50000000  uzf088
  189  2 89  0  289  1.00000000E-06      10.00000000       0.05000000       0.30000000       0.15000000       3.50000000  uzf089
  190  2 90  0  290  1.00000000E-06      10.00000000       0.05000000       0.30000000       0.15000000       3.50000000  uzf090
  191  2 91  0  291  1.00000000E-06      10.00000000       0.05000000       0.30000000       0.15000000       3.50000000  uzf091
  192  2 92  0  292  1.00000000E-06      10.00000000       0.05000000       0.30000000       0.15000000       3.50000000  uzf092
  193  2 93  0  293  1.00000000E-06      10.00000000       0.05000000       0.30000000       0.15000000       3.50000000  uzf093
  194  2 94  0  294  1.00000000E-06      10.00000000       0.05000000       0.30000000       0.15000000       3.50000000  uzf094
  195  2 95  0  295  1.00000000E-06      10.00000000       0.05000000       0.30000000       0.15000000       3.50000000  uzf095
  196  2 96  0  296  1.00000000E-06      10.00000000       0.05000000       0.30000000       0.15000000       3.50000000  uzf096
  197  2 97  0  297  1.00000000E-06      10.00000000       0.05000000       0.30000000       0.15000000       3.50000000  uzf097
  198  2 98  0  298  1.00000000E-06      10.00000000       0.05000000       0.30000000       0.15000000       3.50000000  uzf098
  199  2 99  0  299  1.00000000E-06      10.00000000       0.05000000       0.30000000       0.15000000       3.50000000  uzf099
  200  2 100  0  300  1.00000000E-06      10.00000000       0.05000000       0.30000000       0.15000000       3.50000000  uzf100
  201  3 1  0  301  1.00000000E-06      10.00000000       0.05000000       0.30000000       0.15000000       3.50000000  uzf001
  202  3 2  0  302  1.00000000E-06      10.00000000       0.05000000       0.30000000       0.15000000       3.50000000  uzf002
  203  3 3  0  303  1.00000000E-06      10.00000000       0.05000000       0.30000000       0.15000000       3.50000000  uzf003
  204  3 4  0  304  1.00000000E-06      10.00000000       0.05000000       0.30000000       0.15000000       3.50000000  uzf004
  205  3 5  0  305  1.00000000E-06      10.00000000       0.05000000       0.30000000       0.15000000       3.50000000  uzf005
  206  3 6  0  306  1.00000000E-06      10.00000000       0.05000000       0.30000000       0.15000000       3.50000000  uzf006
  207  3 7  0  307  1.00000000E-06      10.00000000       0.05000000       0.30000000       0.15000000       3.50000000  uzf007
  208  3 8  0  308  1.00000000E-06      10.00000000       0.05000000       0.30000000       0.15000000       3.50000000  uzf008
  209  3 9  0  309  1.00000000E-06      10.00000000       0.05000000       0.30000000       0.15000000       3.50000000  uzf009
  210  3 10  0  310  1.00000000E-06      10.00000000       0.05000000       0.30000000       0.15000000       3.50000000  uzf010
  211  3 11  0  311  1.00000000E-06      10.00000000       0.05000000       0.30000000       0.15000000       3.50000000  uzf011
  212  3 12  0  312  1.00000000E-06      10.00000000       0.05000000       0.30000000       0.15000000       3.50000000  uzf012
  213  3 13  0  313  1.00000000E-06      10.00000000       0.05000000       0.30000000       0.15000000       3.50000000  uzf013
  214  3 14  0  314  1.00000000E-06      10.00000000       0.05000000       0.30000000       0.15000000       3.50000000  uzf014
  215  3 15  0  315  1.00000000E-06      10.00000000       0.05000000       0.30000000       0.15000000       3.50000000  uzf015
  216  3 16  0  316  1.00000000E-06      10.00000000       0.05000000       0.30000000       0.15000000       3.50000000  uzf016
  217  3 17  0  317  1.00000000E-06      10.00000000       0.05000000       0.30000000       0.15000000       3.50000000  uzf017
  218  3 18  0  318  1.00000000E-06      10.00000000       0.05000000       0.30000000       0.15000000       3.50000000  uzf018
  219  3 19  0  319  1.00000000E-06      10.00000000       0.05000000       0.30000000       0.15000000       3.50000000  uzf019
  220  3 20  0  320  1.00000000E-06      10.00000000       0.05000000       0.30000000       0.15000000       3.50000000  uzf020
  221  3 21  0  321  1.00000000E-06      10.00000000       0.05000000       0.30000000       0.15000000       3.50000000  uzf021
  222  3 22  0  322  1.00000000E-06      10.00000000       0.05000000       0.30000000       0.15000000       3.50000000  uzf022
  223  3 23  0  323  1.00000000E-06      10.00000000       0.05000000       0.30000000       0.15000000       3.50000000  uzf023
  224  3 24  0  324  1.00000000E-06      10.00000000       0.05000000       0.30000000       0.15000000       3.50000000  uzf024
  225  3 25  0  325  1.00000000E-06      10.00000000       0.05000000       0.30000000       0.15000000       3.50000000  uzf025
  226  3 26  0  326  1.00000000E-06      10.00000000       0.05000000       0.30000000       0.15000000       3.50000000  uzf026
  227  3 27  0  327  1.00000000E-06      10.00000000       0.05000000       0.30000000       0.15000000       3.50000000  uzf027
  228  3 28  0  328  1.00000000E-06      10.00000000       0.05000000       0.30000000       0.15000000       3.50000000  uzf028
  229  3 29  0  329  1.00000000E-06      10.00000000       0.05000000       0.30000000       0.15000000       3.50000000  uzf029