# File generated by Flopy version 3.5.0.dev0 on 10/30/2023 at 09:06:41.
BEGIN options
  DIGITS  20
END options

BEGIN continuous  FILEOUT  disv_with_uzf.obs.csv
  obs_41  head  1 41
  obs_42  head  1 42
  obs_43  head  1 43
  obs_44  head  1 44
  obs_45  head  1 45
  obs_46  head  1 46
  obs_47  head  1 47
  obs_48  head  1 48
  obs_49  head  1 49
  obs_50  head  1 50
END continuous  FILEOUT  disv_with_uzf.obs.csv

