# File generated by Flopy version 3.5.0.dev0 on 10/30/2023 at 09:06:41.
BEGIN options
END options

BEGIN dimensions
  NLAY  5
  NCPL  100
  NVERT  121
END dimensions

BEGIN griddata
  top
    INTERNAL  FACTOR  1.0
        25.00000000      25.00000000      25.00000000      25.00000000      25.00000000      25.00000000      25.00000000      25.00000000      25.00000000      25.00000000      25.00000000      25.00000000      25.00000000      25.00000000      25.00000000      25.00000000      25.00000000      25.00000000      25.00000000      25.00000000
        25.00000000      25.00000000      25.00000000      25.00000000      25.00000000      25.00000000      25.00000000      25.00000000      25.00000000      25.00000000      25.00000000      25.00000000      25.00000000      25.00000000      25.00000000      25.00000000      25.00000000      25.00000000      25.00000000      25.00000000
        25.00000000      25.00000000      25.00000000      25.00000000      25.00000000      25.00000000      25.00000000      25.00000000      25.00000000      25.00000000      25.00000000      25.00000000      25.00000000      25.00000000      25.00000000      25.00000000      25.00000000      25.00000000      25.00000000      25.00000000
        25.00000000      25.00000000      25.00000000      25.00000000      25.00000000      25.00000000      25.00000000      25.00000000      25.00000000      25.00000000      25.00000000      25.00000000      25.00000000      25.00000000      25.00000000      25.00000000      25.00000000      25.00000000      25.00000000      25.00000000
        25.00000000      25.00000000      25.00000000      25.00000000      25.00000000      25.00000000      25.00000000      25.00000000      25.00000000      25.00000000      25.00000000      25.00000000      25.00000000      25.00000000      25.00000000      25.00000000      25.00000000      25.00000000      25.00000000      25.00000000
  botm  LAYERED
    INTERNAL  FACTOR  1.0
          20.00000000      20.00000000      20.00000000      20.00000000      20.00000000      20.00000000      20.00000000      20.00000000      20.00000000      20.00000000      20.00000000      20.00000000      20.00000000      20.00000000      20.00000000      20.00000000      20.00000000      20.00000000      20.00000000      20.00000000
          20.00000000      20.00000000      20.00000000      20.00000000      20.00000000      20.00000000      20.00000000      20.00000000      20.00000000      20.00000000      20.00000000      20.00000000      20.00000000      20.00000000      20.00000000      20.00000000      20.00000000      20.00000000      20.00000000      20.00000000
          20.00000000      20.00000000      20.00000000      20.00000000      20.00000000      20.00000000      20.00000000      20.00000000      20.00000000      20.00000000      20.00000000      20.00000000      20.00000000      20.00000000      20.00000000      20.00000000      20.00000000      20.00000000      20.00000000      20.00000000
          20.00000000      20.00000000      20.00000000      20.00000000      20.00000000      20.00000000      20.00000000      20.00000000      20.00000000      20.00000000      20.00000000      20.00000000      20.00000000      20.00000000      20.00000000      20.00000000      20.00000000      20.00000000      20.00000000      20.00000000
          20.00000000      20.00000000      20.00000000      20.00000000      20.00000000      20.00000000      20.00000000      20.00000000      20.00000000      20.00000000      20.00000000      20.00000000      20.00000000      20.00000000      20.00000000      20.00000000      20.00000000      20.00000000      20.00000000      20.00000000
    INTERNAL  FACTOR  1.0
          15.00000000      15.00000000      15.00000000      15.00000000      15.00000000      15.00000000      15.00000000      15.00000000      15.00000000      15.00000000      15.00000000      15.00000000      15.00000000      15.00000000      15.00000000      15.00000000      15.00000000      15.00000000      15.00000000      15.00000000
          15.00000000      15.00000000      15.00000000      15.00000000      15.00000000      15.00000000      15.00000000      15.00000000      15.00000000      15.00000000      15.00000000      15.00000000      15.00000000      15.00000000      15.00000000      15.00000000      15.00000000      15.00000000      15.00000000      15.00000000
          15.00000000      15.00000000      15.00000000      15.00000000      15.00000000      15.00000000      15.00000000      15.00000000      15.00000000      15.00000000      15.00000000      15.00000000      15.00000000      15.00000000      15.00000000      15.00000000      15.00000000      15.00000000      15.00000000      15.00000000
          15.00000000      15.00000000      15.00000000      15.00000000      15.00000000      15.00000000      15.00000000      15.00000000      15.00000000      15.00000000      15.00000000      15.00000000      15.00000000      15.00000000      15.00000000      15.00000000      15.00000000      15.00000000      15.00000000      15.00000000
          15.00000000      15.00000000      15.00000000      15.00000000      15.00000000      15.00000000      15.00000000      15.00000000      15.00000000      15.00000000      15.00000000      15.00000000      15.00000000      15.00000000      15.00000000      15.00000000      15.00000000      15.00000000      15.00000000      15.00000000
    INTERNAL  FACTOR  1.0
          10.00000000      10.00000000      10.00000000      10.00000000      10.00000000      10.00000000      10.00000000      10.00000000      10.00000000      10.00000000      10.00000000      10.00000000      10.00000000      10.00000000      10.00000000      10.00000000      10.00000000      10.00000000      10.00000000      10.00000000
          10.00000000      10.00000000      10.00000000      10.00000000      10.00000000      10.00000000      10.00000000      10.00000000      10.00000000      10.00000000      10.00000000      10.00000000      10.00000000      10.00000000      10.00000000      10.00000000      10.00000000      10.00000000      10.00000000      10.00000000
          10.00000000      10.00000000      10.00000000      10.00000000      10.00000000      10.00000000      10.00000000      10.00000000      10.00000000      10.00000000      10.00000000      10.00000000      10.00000000      10.00000000      10.00000000      10.00000000      10.00000000      10.00000000      10.00000000      10.00000000
          10.00000000      10.00000000      10.00000000      10.00000000      10.00000000      10.00000000      10.00000000      10.00000000      10.00000000      10.00000000      10.00000000      10.00000000      10.00000000      10.00000000      10.00000000      10.00000000      10.00000000      10.00000000      10.00000000      10.00000000
          10.00000000      10.00000000      10.00000000      10.00000000      10.00000000      10.00000000      10.00000000      10.00000000      10.00000000      10.00000000      10.00000000      10.00000000      10.00000000      10.00000000      10.00000000      10.00000000      10.00000000      10.00000000      10.00000000      10.00000000
    INTERNAL  FACTOR  1.0
           5.00000000       5.00000000       5.00000000       5.00000000       5.00000000       5.00000000       5.00000000       5.00000000       5.00000000       5.00000000       5.00000000       5.00000000       5.00000000       5.00000000       5.00000000       5.00000000       5.00000000       5.00000000       5.00000000       5.00000000
           5.00000000       5.00000000       5.00000000       5.00000000       5.00000000       5.00000000       5.00000000       5.00000000       5.00000000       5.00000000       5.00000000       5.00000000       5.00000000       5.00000000       5.00000000       5.00000000       5.00000000       5.00000000       5.00000000       5.00000000
           5.00000000       5.00000000       5.00000000       5.00000000       5.00000000       5.00000000       5.00000000       5.00000000       5.00000000       5.00000000       5.00000000       5.00000000       5.00000000       5.00000000       5.00000000       5.00000000       5.00000000       5.00000000       5.00000000       5.00000000
           5.00000000       5.00000000       5.00000000       5.00000000       5.00000000       5.00000000       5.00000000       5.00000000       5.00000000       5.00000000       5.00000000       5.00000000       5.00000000       5.00000000       5.00000000       5.00000000       5.00000000       5.00000000       5.00000000       5.00000000
           5.00000000       5.00000000       5.00000000       5.00000000       5.00000000       5.00000000       5.00000000       5.00000000       5.00000000       5.00000000       5.00000000       5.00000000       5.00000000       5.00000000       5.00000000       5.00000000       5.00000000       5.00000000       5.00000000       5.00000000
    INTERNAL  FACTOR  1.0
           0.00000000       0.00000000       0.00000000       0.00000000       0.00000000       0.00000000       0.00000000       0.00000000       0.00000000       0.00000000       0.00000000       0.00000000       0.00000000       0.00000000       0.00000000       0.00000000       0.00000000       0.00000000       0.00000000       0.00000000
           0.00000000       0.00000000       0.00000000       0.00000000       0.00000000       0.00000000       0.00000000       0.00000000       0.00000000       0.00000000       0.00000000       0.00000000       0.00000000       0.00000000       0.00000000       0.00000000       0.00000000       0.00000000       0.00000000       0.00000000
           0.00000000       0.00000000       0.00000000       0.00000000       0.00000000       0.00000000       0.00000000       0.00000000       0.00000000       0.00000000       0.00000000       0.00000000       0.00000000       0.00000000       0.00000000       0.00000000       0.00000000       0.00000000       0.00000000       0.00000000
           0.00000000       0.00000000       0.00000000       0.00000000       0.00000000       0.00000000       0.00000000       0.00000000       0.00000000       0.00000000       0.00000000       0.00000000       0.00000000       0.00000000       0.00000000       0.00000000       0.00000000       0.00000000       0.00000000       0.00000000
           0.00000000       0.00000000       0.00000000       0.00000000       0.00000000       0.00000000       0.00000000       0.00000000       0.00000000       0.00000000       0.00000000       0.00000000       0.00000000       0.00000000       0.00000000       0.00000000       0.00000000       0.00000000       0.00000000       0.00000000
END griddata

BEGIN vertices
  1       0.00000000      10.00000000
  2       1.00000000      10.00000000
  3       2.00000000      10.00000000
  4       3.00000000      10.00000000
  5       4.00000000      10.00000000
  6       5.00000000      10.00000000
  7       6.00000000      10.00000000
  8       7.00000000      10.00000000
  9       8.00000000      10.00000000
  10       9.00000000      10.00000000
  11      10.00000000      10.00000000
  12       0.00000000       9.00000000
  13       1.00000000       9.00000000
  14       2.00000000       9.00000000
  15       3.00000000       9.00000000
  16       4.00000000       9.00000000
  17       5.00000000       9.00000000
  18       6.00000000       9.00000000
  19       7.00000000       9.00000000
  20       8.00000000       9.00000000
  21       9.00000000       9.00000000
  22      10.00000000       9.00000000
  23       0.00000000       8.00000000
  24       1.00000000       8.00000000
  25       2.00000000       8.00000000
  26       3.00000000       8.00000000
  27       4.00000000       8.00000000
  28       5.00000000       8.00000000
  29       6.00000000       8.00000000
  30       7.00000000       8.00000000
  31       8.00000000       8.00000000
  32       9.00000000       8.00000000
  33      10.00000000       8.00000000
  34       0.00000000       7.00000000
  35       1.00000000       7.00000000
  36       2.00000000       7.00000000
  37       3.00000000       7.00000000
  38       4.00000000       7.00000000
  39       5.00000000       7.00000000
  40       6.00000000       7.00000000
  41       7.00000000       7.00000000
  42       8.00000000       7.00000000
  43       9.00000000       7.00000000
  44      10.00000000       7.00000000
  45       0.00000000       6.00000000
  46       1.00000000       6.00000000
  47       2.00000000       6.00000000
  48       3.00000000       6.00000000
  49       4.00000000       6.00000000
  50       5.00000000       6.00000000
  51       6.00000000       6.00000000
  52       7.00000000       6.00000000
  53       8.00000000       6.00000000
  54       9.00000000       6.00000000
  55      10.00000000       6.00000000
  56       0.00000000       5.00000000
  57       1.00000000       5.00000000
  58       2.00000000       5.00000000
  59       3.00000000       5.00000000
  60       4.00000000       5.00000000
  61       5.00000000       5.00000000
  62       6.00000000       5.00000000
  63       7.00000000       5.00000000
  64       8.00000000       5.00000000
  65       9.00000000       5.00000000
  66      10.00000000       5.00000000
  67       0.00000000       4.00000000
  68       1.00000000       4.00000000
  69       2.00000000       4.00000000
  70       3.00000000       4.00000000
  71       4.00000000       4.00000000
  72       5.00000000       4.00000000
  73       6.00000000       4.00000000
  74       7.00000000       4.00000000
  75       8.00000000       4.00000000
  76       9.00000000       4.00000000
  77      10.00000000       4.00000000
  78       0.00000000       3.00000000
  79       1.00000000       3.00000000
  80       2.00000000       3.00000000
  81       3.00000000       3.00000000
  82       4.00000000       3.00000000
  83       5.00000000       3.00000000
  84       6.00000000       3.00000000
  85       7.00000000       3.00000000
  86       8.00000000       3.00000000
  87       9.00000000       3.00000000
  88      10.00000000       3.00000000
  89       0.00000000       2.00000000
  90       1.00000000       2.00000000
  91       2.00000000       2.00000000
  92       3.00000000       2.00000000
  93       4.00000000       2.00000000
  94       5.00000000       2.00000000
  95       6.00000000       2.00000000
  96       7.00000000       2.00000000
  97       8.00000000       2.00000000
  98       9.00000000       2.00000000
  99      10.00000000       2.00000000
  100       0.00000000       1.00000000
  101       1.00000000       1.00000000
  102       2.00000000       1.00000000
  103       3.00000000       1.00000000
  104       4.00000000       1.00000000
  105       5.00000000       1.00000000
  106       6.00000000       1.00000000
  107       7.00000000       1.00000000
  108       8.00000000       1.00000000
  109       9.00000000       1.00000000
  110      10.00000000       1.00000000
  111       0.00000000       0.00000000
  112       1.00000000       0.00000000
  113       2.00000000       0.00000000
  114       3.00000000       0.00000000
  115       4.00000000       0.00000000
  116       5.00000000       0.00000000
  117       6.00000000       0.00000000
  118       7.00000000       0.00000000
  119       8.00000000       0.00000000
  120       9.00000000       0.00000000
  121      10.00000000       0.00000000
END vertices

BEGIN cell2d
  1       0.50000000       9.50000000  4  1  2  13  12
  2       1.50000000       9.50000000  4  2  3  14  13
  3       2.50000000       9.50000000  4  3  4  15  14
  4       3.50000000       9.50000000  4  4  5  16  15
  5       4.50000000       9.50000000  4  5  6  17  16
  6       5.50000000       9.50000000  4  6  7  18  17
  7       6.50000000       9.50000000  4  7  8  19  18
  8       7.50000000       9.50000000  4  8  9  20  19
  9       8.50000000       9.50000000  4  9  10  21  20
  10       9.50000000       9.50000000  4  10  11  22  21
  11       0.50000000       8.50000000  4  12  13  24  23
  12       1.50000000       8.50000000  4  13  14  25  24
  13       2.50000000       8.50000000  4  14  15  26  25
  14       3.50000000       8.50000000  4  15  16  27  26
  15       4.50000000       8.50000000  4  16  17  28  27
  16       5.50000000       8.50000000  4  17  18  29  28
  17       6.50000000       8.50000000  4  18  19  30  29
  18       7.50000000       8.50000000  4  19  20  31  30
  19       8.50000000       8.50000000  4  20  21  32  31
  20       9.50000000       8.50000000  4  21  22  33  32
  21       0.50000000       7.50000000  4  23  24  35  34
  22       1.50000000       7.50000000  4  24  25  36  35
  23       2.50000000       7.50000000  4  25  26  37  36
  24       3.50000000       7.50000000  4  26  27  38  37
  25       4.50000000       7.50000000  4  27  28  39  38
  26       5.50000000       7.50000000  4  28  29  40  39
  27       6.50000000       7.50000000  4  29  30  41  40
  28       7.50000000       7.50000000  4  30  31  42  41
  29       8.50000000       7.50000000  4  31  32  43  42
  30       9.50000000       7.50000000  4  32  33  44  43
  31       0.50000000       6.50000000  4  34  35  46  45
  32       1.50000000       6.50000000  4  35  36  47  46
  33       2.50000000       6.50000000  4  36  37  48  47
  34       3.50000000       6.50000000  4  37  38  49  48
  35       4.50000000       6.50000000  4  38  39  50  49
  36       5.50000000       6.50000000  4  39  40  51  50
  37       6.50000000       6.50000000  4  40  41  52  51
  38       7.50000000       6.50000000  4  41  42  53  52
  39       8.50000000       6.50000000  4  42  43  54  53
  40       9.50000000       6.50000000  4  43  44  55  54
  41       0.50000000       5.50000000  4  45  46  57  56
  42       1.50000000       5.50000000  4  46  47  58  57
  43       2.50000000       5.50000000  4  47  48  59  58
  44       3.50000000       5.50000000  4  48  49  60  59
  45       4.50000000       5.50000000  4  49  50  61  60
  46       5.50000000       5.50000000  4  50  51  62  61
  47       6.50000000       5.50000000  4  51  52  63  62
  48       7.50000000       5.50000000  4  52  53  64  63
  49       8.50000000       5.50000000  4  53  54  65  64
  50       9.50000000       5.50000000  4  54  55  66  65
  51       0.50000000       4.50000000  4  56  57  68  67
  52       1.50000000       4.50000000  4  57  58  69  68
  53       2.50000000       4.50000000  4  58  59  70  69
  54       3.50000000       4.50000000  4  59  60  71  70
  55       4.50000000       4.50000000  4  60  61  72  71
  56       5.50000000       4.50000000  4  61  62  73  72
  57       6.50000000       4.50000000  4  62  63  74  73
  58       7.50000000       4.50000000  4  63  64  75  74
  59       8.50000000       4.50000000  4  64  65  76  75
  60       9.50000000       4.50000000  4  65  66  77  76
  61       0.50000000       3.50000000  4  67  68  79  78
  62       1.50000000       3.50000000  4  68  69  80  79
  63       2.50000000       3.50000000  4  69  70  81  80
  64       3.50000000       3.50000000  4  70  71  82  81
  65       4.50000000       3.50000000  4  71  72  83  82
  66       5.50000000       3.50000000  4  72  73  84  83
  67       6.50000000       3.50000000  4  73  74  85  84
  68       7.50000000       3.50000000  4  74  75  86  85
  69       8.50000000       3.50000000  4  75  76  87  86
  70       9.50000000       3.50000000  4  76  77  88  87
  71       0.50000000       2.50000000  4  78  79  90  89
  72       1.50000000       2.50000000  4  79  80  91  90
  73       2.50000000       2.50000000  4  80  81  92  91
  74       3.50000000       2.50000000  4  81  82  93  92
  75       4.50000000       2.50000000  4  82  83  94  93
  76       5.50000000       2.50000000  4  83  84  95  94
  77       6.50000000       2.50000000  4  84  85  96  95
  78       7.50000000       2.50000000  4  85  86  97  96
  79       8.50000000       2.50000000  4  86  87  98  97
  80       9.50000000       2.50000000  4  87  88  99  98
  81       0.50000000       1.50000000  4  89  90  101  100
  82       1.50000000       1.50000000  4  90  91  102  101
  83       2.50000000       1.50000000  4  91  92  103  102
  84       3.50000000       1.50000000  4  92  93  104  103
  85       4.50000000       1.50000000  4  93  94  105  104
  86       5.50000000       1.50000000  4  94  95  106  105
  87       6.50000000       1.50000000  4  95  96  107  106
  88       7.50000000       1.50000000  4  96  97  108  107
  89       8.50000000       1.50000000  4  97  98  109  108
  90       9.50000000       1.50000000  4  98  99  110  109
  91       0.50000000       0.50000000  4  100  101  112  111
  92       1.50000000       0.50000000  4  101  102  113  112
  93       2.50000000       0.50000000  4  102  103  114  113
  94       3.50000000       0.50000000  4  103  104  115  114
  95       4.50000000       0.50000000  4  104  105  116  115
  96       5.50000000       0.50000000  4  105  106  117  116
  97       6.50000000       0.50000000  4  106  107  118  117
  98       7.50000000       0.50000000  4  107  108  119  118
  99       8.50000000       0.50000000  4  108  109  120  119
  100       9.50000000       0.50000000  4  109  110  121  120
END cell2d

