BEGIN OPTIONS
END OPTIONS

BEGIN PACKAGES
  DIS6          flow15.dis
  IC6           flow15.ic
  NPF6          flow15.npf
  CHD6          flow15_constant.chd
  OC6           flow15.oc
END PACKAGES
