# SMS8 input file, prepared by mf5to15 on 4/10/2015 at 9:04:54.

BEGIN OPTIONS
  PRINT_OPTION ALL
  COMPLEXITY  SIMPLE
END OPTIONS

BEGIN NONLINEAR
  OUTER_HCLOSE   0.99999997E-05
  OUTER_MAXIMUM  50
  UNDER_RELAXATION  NONE
END NONLINEAR

BEGIN LINEAR
  INNER_MAXIMUM  30
  INNER_HCLOSE   0.10000000E-05
  INNER_RCLOSE   0.99999997E-05
  LINEAR_ACCELERATION  CG
END LINEAR

BEGIN XMD
  INNER_MAXIMUM  30
  INNER_HCLOSE   0.10000000E-05
  LINEAR_ACCELERATION  CG
  PRECONDITIONER_LEVELS  7
  PRECONDITIONER_DROP_TOLERANCE   0.10000000E-02
  NUMBER_ORTHOGONALIZATIONS  2
END XMD
