# CHD8 input file, prepared by mf5to15 on 4/10/2015 at 9:04:54.

BEGIN Options
  PRINT_FLOWS
  PRINT_INPUT
  SAVE_FLOWS
END Options

BEGIN Dimensions
  MAXBOUND  2
END Dimensions

BEGIN Period 1
  1  1  1   10.0000000    
  1  1  10   0.0000000
END Period
