
BEGIN OPTIONS
  HEAD FILEOUT flow15_flow.hds
  BUDGET FILEOUT flow15_flow.cbc
END OPTIONS

BEGIN PERIOD 1
  PRINT HEAD ALL
  SAVE HEAD ALL
  PRINT BUDGET ALL
  SAVE BUDGET ALL
END PERIOD
