# IC8 input file, prepared by mf5to15 on 4/10/2015 at 9:04:54.

BEGIN Options
END Options

BEGIN GRIDDATA
  STRT LAYERED
    INTERNAL  FACTOR   1.000000000      IPRN  -1    Initial head for layer 1
 10.00000000      1.000000000      1.000000000      1.000000000      1.000000000      1.000000000      1.000000000      1.000000000      1.000000000       0.00000000    
END GRIDDATA
