# Simulation name file for MODFLOW 6

BEGIN OPTIONS
END OPTIONS

BEGIN TIMING
  TDIS6  flow15.tdis
END TIMING

BEGIN MODELS
  GWF6  flow15.nam  flow15
END MODELS

BEGIN EXCHANGES
END EXCHANGES

BEGIN SOLUTIONGROUP 1
  IMS6  flow15.ims  flow15
END SOLUTIONGROUP
