# File generated by Flopy version 3.5.0.dev0 on 02/20/2024 at 08:30:12.
BEGIN options
END options

BEGIN dimensions
  NPER  1
END dimensions

BEGIN perioddata
       1.00000000  1       1.00000000
END perioddata

