# File generated by Flopy version 3.5.0.dev0 on 02/20/2024 at 08:30:12.
BEGIN options
  PRINT_OPTION  summary
END options

