# File generated by Flopy version 3.5.0.dev0 on 02/20/2024 at 08:30:13.
BEGIN options
END options

BEGIN packages
  DISU6  disu01a.nc  disu
  IC6  disu01a.nc  ic
  NPF6  disu01a.nc  npf
  CHD6  disu01a.nc  chd_0
END packages

