# File generated by Flopy version 3.5.0.dev0 on 10/30/2023 at 09:20:40.
BEGIN options
END options

BEGIN packages
  DIS6  gwf0.nc  dis
  IC6  gwf0.ic  ic
  NPF6  gwf0.nc  npf
  CHD6  gwf0.nc  chd1
  CHD6  gwf0.nc  chd2
  OC6  gwf0.oc  oc
END packages

