# File generated by Flopy version 3.5.0.dev0 on 10/30/2023 at 09:20:40.
BEGIN options
  BUDGET  FILEOUT  gwf0.cbc
  HEAD  FILEOUT  gwf0.hds
  HEAD  PRINT_FORMAT  COLUMNS  10  WIDTH  15  DIGITS  6  GENERAL
END options

BEGIN period  1
  SAVE  HEAD  LAST
  PRINT  HEAD  LAST
  PRINT  BUDGET  LAST
END period  1

