# File generated by Flopy version 3.5.0.dev0 on 10/30/2023 at 09:20:40.
BEGIN griddata
  strt
    CONSTANT     -40.00000000
END griddata

