BEGIN OPTIONS
  PRINT_INPUT
  PRINT_FLOWS
  SAVE_FLOWS
END OPTIONS

BEGIN DIMENSIONS
  MAXBOUND 6
END DIMENSIONS

BEGIN PERIOD 1
1 9  16 -8.200000e-003 
1 11 13 -4.100000e-003 
1 20 14 -3.900000e-003 
1 26 10 -8.300000e-004 
1 29 6  -7.200000e-004 
1 34 12 -4.300000e-003 
END PERIOD