begin options
  PRINT_OPTION SUMMARY
end options

begin nonlinear
	outer_dvclose 1.e-8
	outer_maximum 500
	under_relaxation none
end nonlinear

begin linear
	inner_dvclose 1.0e-9
	inner_rclose 1e-6 strict
	inner_maximum 100
	linear_acceleration cg
	scaling_method none
	REORDERING_METHOD none
	relaxation_factor 0.97
end linear
