BEGIN OPTIONS
  READASARRAYS
  PRINT_INPUT
  PRINT_FLOWS
  SAVE_FLOWS
END OPTIONS

BEGIN PERIOD 1
  RECHARGE
    CONSTANT 1.6000e-09
END PERIOD