BEGIN OPTIONS
END OPTIONS

BEGIN GRIDDATA
  STRT
    INTERNAL FACTOR 1.
4.5000e+01  4.5000e+01  4.5000e+01  4.5000e+01  4.5000e+01  4.5000e+01  4.5000e+01  4.5000e+01  4.5000e+01  4.5000e+01
4.5000e+01  4.5000e+01  4.5000e+01  4.5000e+01  4.5000e+01  4.5000e+01  4.5000e+01  4.5000e+01  4.5000e+01  4.5000e+01
4.5000e+01  4.5000e+01  4.5000e+01  4.5000e+01  4.5000e+01  4.5000e+01  4.5000e+01  4.5000e+01  4.5000e+01  4.5000e+01
4.5000e+01  4.5000e+01  4.5000e+01  4.5000e+01  4.5000e+01  4.5000e+01  4.5000e+01  4.5000e+01  4.5000e+01  4.5000e+01
4.5000e+01  4.5000e+01  4.5000e+01  4.5000e+01  4.5000e+01  4.5000e+01  4.5000e+01  4.5000e+01  4.5000e+01  4.5000e+01
4.5000e+01  4.5000e+01  4.5000e+01  4.5000e+01  4.5000e+01  4.5000e+01  4.5000e+01  4.5000e+01  4.5000e+01  4.5000e+01
4.5000e+01  4.5000e+01  4.5000e+01  4.5000e+01  4.5000e+01  4.5000e+01  4.5000e+01  4.5000e+01  4.5000e+01  4.5000e+01
4.5000e+01  4.5000e+01  4.5000e+01  4.5000e+01  4.5000e+01  4.5000e+01  4.5000e+01  4.5000e+01  4.5000e+01  4.5000e+01
4.5000e+01  4.5000e+01  4.5000e+01  4.5000e+01  4.5000e+01  4.5000e+01  4.5000e+01  4.5000e+01  4.5000e+01  4.5000e+01
4.5000e+01  4.5000e+01  4.5000e+01  4.5000e+01  4.5000e+01  4.5000e+01  4.5000e+01  4.5000e+01  4.5000e+01  4.5000e+01
4.5000e+01  4.5000e+01  4.5000e+01  4.5000e+01  4.5000e+01  4.5000e+01  4.5000e+01  4.5000e+01  4.5000e+01  4.5000e+01
4.5000e+01  4.5000e+01  4.5000e+01  4.5000e+01  4.5000e+01  4.5000e+01  4.5000e+01  4.5000e+01  4.5000e+01  4.5000e+01
4.5000e+01  4.5000e+01  4.5000e+01  4.5000e+01  4.5000e+01  4.5000e+01  4.5000e+01  4.5000e+01  4.5000e+01  4.5000e+01
4.5000e+01  4.5000e+01  4.5000e+01  4.5000e+01  4.5000e+01  4.5000e+01  4.5000e+01  4.5000e+01  4.5000e+01  4.5000e+01
4.5000e+01  4.5000e+01  4.5000e+01  4.5000e+01  4.5000e+01  4.5000e+01  4.5000e+01  4.5000e+01  4.5000e+01  4.5000e+01
4.5000e+01  4.5000e+01  4.5000e+01  4.5000e+01  4.5000e+01  4.5000e+01  4.5000e+01  4.5000e+01  4.5000e+01  4.5000e+01
4.5000e+01  4.5000e+01  4.5000e+01  4.5000e+01  4.5000e+01  4.5000e+01  4.5000e+01  4.5000e+01  4.5000e+01  4.5000e+01
4.5000e+01  4.5000e+01  4.5000e+01  4.5000e+01  4.5000e+01  4.5000e+01  4.5000e+01  4.5000e+01  4.5000e+01  4.5000e+01
4.5000e+01  4.5000e+01  4.5000e+01  4.5000e+01  4.5000e+01  4.5000e+01  4.5000e+01  4.5000e+01  4.5000e+01  4.5000e+01
4.5000e+01  4.5000e+01  4.5000e+01  4.5000e+01  4.5000e+01  4.5000e+01  4.5000e+01  4.5000e+01  4.5000e+01  4.5000e+01
4.5000e+01  4.5000e+01  4.5000e+01  4.5000e+01  4.5000e+01  4.5000e+01  4.5000e+01  4.5000e+01  4.5000e+01  4.5000e+01
4.5000e+01  4.5000e+01  4.5000e+01  4.5000e+01  4.5000e+01  4.5000e+01  4.5000e+01  4.5000e+01  4.5000e+01  4.5000e+01
4.5000e+01  4.5000e+01  4.5000e+01  4.5000e+01  4.5000e+01  4.5000e+01  4.5000e+01  4.5000e+01  4.5000e+01  4.5000e+01
4.5000e+01  4.5000e+01  4.5000e+01  4.5000e+01  4.5000e+01  4.5000e+01  4.5000e+01  4.5000e+01  4.5000e+01  4.5000e+01
4.5000e+01  4.5000e+01  4.5000e+01  4.5000e+01  4.5000e+01  4.5000e+01  4.5000e+01  4.5000e+01  4.5000e+01  4.5000e+01
4.5000e+01  4.5000e+01  4.5000e+01  4.5000e+01  4.5000e+01  4.5000e+01  4.5000e+01  4.5000e+01  4.5000e+01  4.5000e+01
4.5000e+01  4.5000e+01  4.5000e+01  4.5000e+01  4.5000e+01  4.5000e+01  4.5000e+01  4.5000e+01  4.5000e+01  4.5000e+01
4.5000e+01  4.5000e+01  4.5000e+01  4.5000e+01  4.5000e+01  4.5000e+01  4.5000e+01  4.5000e+01  4.5000e+01  4.5000e+01
4.5000e+01  4.5000e+01  4.5000e+01  4.5000e+01  4.5000e+01  4.5000e+01  4.5000e+01  4.5000e+01  4.5000e+01  4.5000e+01
4.5000e+01  4.5000e+01  4.5000e+01  4.5000e+01  4.5000e+01  4.5000e+01  4.5000e+01  4.5000e+01  4.5000e+01  4.5000e+01
4.5000e+01  4.5000e+01  4.5000e+01  4.5000e+01  4.5000e+01  4.5000e+01  4.5000e+01  4.5000e+01  4.5000e+01  4.5000e+01
4.5000e+01  4.5000e+01  4.5000e+01  4.5000e+01  4.5000e+01  4.5000e+01  4.5000e+01  4.5000e+01  4.5000e+01  4.5000e+01
4.5000e+01  4.5000e+01  4.5000e+01  4.5000e+01  4.5000e+01  4.5000e+01  4.5000e+01  4.5000e+01  4.5000e+01  4.5000e+01
4.5000e+01  4.5000e+01  4.5000e+01  4.5000e+01  4.5000e+01  4.5000e+01  4.5000e+01  4.5000e+01  4.5000e+01  4.5000e+01
4.5000e+01  4.5000e+01  4.5000e+01  4.5000e+01  4.5000e+01  4.5000e+01  4.5000e+01  4.5000e+01  4.5000e+01  4.5000e+01
4.5000e+01  4.5000e+01  4.5000e+01  4.5000e+01  4.5000e+01  4.5000e+01  4.5000e+01  4.5000e+01  4.5000e+01  4.5000e+01
4.5000e+01  4.5000e+01  4.5000e+01  4.5000e+01  4.5000e+01  4.5000e+01  4.5000e+01  4.5000e+01  4.5000e+01  4.5000e+01
4.5000e+01  4.5000e+01  4.5000e+01  4.5000e+01  4.5000e+01  4.5000e+01  4.5000e+01  4.5000e+01  4.5000e+01  4.5000e+01
4.5000e+01  4.5000e+01  4.5000e+01  4.5000e+01  4.5000e+01  4.5000e+01  4.5000e+01  4.5000e+01  4.5000e+01  4.5000e+01
4.5000e+01  4.5000e+01  4.5000e+01  4.5000e+01  4.5000e+01  4.5000e+01  4.5000e+01  4.5000e+01  4.5000e+01  4.5000e+01
4.5000e+01  4.5000e+01  4.5000e+01  4.5000e+01  4.5000e+01  4.5000e+01  4.5000e+01  4.5000e+01  4.5000e+01  4.5000e+01
4.5000e+01  4.5000e+01  4.5000e+01  4.5000e+01  4.5000e+01  4.5000e+01  4.5000e+01  4.5000e+01  4.5000e+01  4.5000e+01
4.5000e+01  4.5000e+01  4.5000e+01  4.5000e+01  4.5000e+01  4.5000e+01  4.5000e+01  4.5000e+01  4.5000e+01  4.5000e+01
4.5000e+01  4.5000e+01  4.5000e+01  4.5000e+01  4.5000e+01  4.5000e+01  4.5000e+01  4.5000e+01  4.5000e+01  4.5000e+01
4.5000e+01  4.5000e+01  4.5000e+01  4.5000e+01  4.5000e+01  4.5000e+01  4.5000e+01  4.5000e+01  4.5000e+01  4.5000e+01
4.5000e+01  4.5000e+01  4.5000e+01  4.5000e+01  4.5000e+01  4.5000e+01  4.5000e+01  4.5000e+01  4.5000e+01  4.5000e+01
4.5000e+01  4.5000e+01  4.5000e+01  4.5000e+01  4.5000e+01  4.5000e+01  4.5000e+01  4.5000e+01  4.5000e+01  4.5000e+01
4.5000e+01  4.5000e+01  4.5000e+01  4.5000e+01  4.5000e+01  4.5000e+01  4.5000e+01  4.5000e+01  4.5000e+01  4.5000e+01
4.5000e+01  4.5000e+01  4.5000e+01  4.5000e+01  4.5000e+01  4.5000e+01  4.5000e+01  4.5000e+01  4.5000e+01  4.5000e+01
4.5000e+01  4.5000e+01  4.5000e+01  4.5000e+01  4.5000e+01  4.5000e+01  4.5000e+01  4.5000e+01  4.5000e+01  4.5000e+01
4.5000e+01  4.5000e+01  4.5000e+01  4.5000e+01  4.5000e+01  4.5000e+01  4.5000e+01  4.5000e+01  4.5000e+01  4.5000e+01
4.5000e+01  4.5000e+01  4.5000e+01  4.5000e+01  4.5000e+01  4.5000e+01  4.5000e+01  4.5000e+01  4.5000e+01  4.5000e+01
4.5000e+01  4.5000e+01  4.5000e+01  4.5000e+01  4.5000e+01  4.5000e+01  4.5000e+01  4.5000e+01  4.5000e+01  4.5000e+01
4.5000e+01  4.5000e+01  4.5000e+01  4.5000e+01  4.5000e+01  4.5000e+01  4.5000e+01  4.5000e+01  4.5000e+01  4.5000e+01
4.5000e+01  4.5000e+01  4.5000e+01  4.5000e+01  4.5000e+01  4.5000e+01  4.5000e+01  4.5000e+01  4.5000e+01  4.5000e+01
4.5000e+01  4.5000e+01  4.5000e+01  4.5000e+01  4.5000e+01  4.5000e+01  4.5000e+01  4.5000e+01  4.5000e+01  4.5000e+01
4.5000e+01  4.5000e+01  4.5000e+01  4.5000e+01  4.5000e+01  4.5000e+01  4.5000e+01  4.5000e+01  4.5000e+01  4.5000e+01
4.5000e+01  4.5000e+01  4.5000e+01  4.5000e+01  4.5000e+01  4.5000e+01  4.5000e+01  4.5000e+01  4.5000e+01  4.5000e+01
4.5000e+01  4.5000e+01  4.5000e+01  4.5000e+01  4.5000e+01  4.5000e+01  4.5000e+01  4.5000e+01  4.5000e+01  4.5000e+01
4.5000e+01  4.5000e+01  4.5000e+01  4.5000e+01  4.5000e+01  4.5000e+01  4.5000e+01  4.5000e+01  4.5000e+01  4.5000e+01
4.5000e+01  4.5000e+01  4.5000e+01  4.5000e+01  4.5000e+01  4.5000e+01  4.5000e+01  4.5000e+01  4.5000e+01  4.5000e+01
4.5000e+01  4.5000e+01  4.5000e+01  4.5000e+01  4.5000e+01  4.5000e+01  4.5000e+01  4.5000e+01  4.5000e+01  4.5000e+01
4.5000e+01  4.5000e+01  4.5000e+01  4.5000e+01  4.5000e+01  4.5000e+01  4.5000e+01  4.5000e+01  4.5000e+01  4.5000e+01
4.5000e+01  4.5000e+01  4.5000e+01  4.5000e+01  4.5000e+01  4.5000e+01  4.5000e+01  4.5000e+01  4.5000e+01  4.5000e+01
4.5000e+01  4.5000e+01  4.5000e+01  4.5000e+01  4.5000e+01  4.5000e+01  4.5000e+01  4.5000e+01  4.5000e+01  4.5000e+01
4.5000e+01  4.5000e+01  4.5000e+01  4.5000e+01  4.5000e+01  4.5000e+01  4.5000e+01  4.5000e+01  4.5000e+01  4.5000e+01
4.5000e+01  4.5000e+01  4.5000e+01  4.5000e+01  4.5000e+01  4.5000e+01  4.5000e+01  4.5000e+01  4.5000e+01  4.5000e+01
4.5000e+01  4.5000e+01  4.5000e+01  4.5000e+01  4.5000e+01  4.5000e+01  4.5000e+01  4.5000e+01  4.5000e+01  4.5000e+01
4.5000e+01  4.5000e+01  4.5000e+01  4.5000e+01  4.5000e+01  4.5000e+01  4.5000e+01  4.5000e+01  4.5000e+01  4.5000e+01
4.5000e+01  4.5000e+01  4.5000e+01  4.5000e+01  4.5000e+01  4.5000e+01  4.5000e+01  4.5000e+01  4.5000e+01  4.5000e+01
4.5000e+01  4.5000e+01  4.5000e+01  4.5000e+01  4.5000e+01  4.5000e+01  4.5000e+01  4.5000e+01  4.5000e+01  4.5000e+01
4.5000e+01  4.5000e+01  4.5000e+01  4.5000e+01  4.5000e+01  4.5000e+01  4.5000e+01  4.5000e+01  4.5000e+01  4.5000e+01
4.5000e+01  4.5000e+01  4.5000e+01  4.5000e+01  4.5000e+01  4.5000e+01  4.5000e+01  4.5000e+01  4.5000e+01  4.5000e+01
4.5000e+01  4.5000e+01  4.5000e+01  4.5000e+01  4.5000e+01  4.5000e+01  4.5000e+01  4.5000e+01  4.5000e+01  4.5000e+01
4.5000e+01  4.5000e+01  4.5000e+01  4.5000e+01  4.5000e+01  4.5000e+01  4.5000e+01  4.5000e+01  4.5000e+01  4.5000e+01
4.5000e+01  4.5000e+01  4.5000e+01  4.5000e+01  4.5000e+01  4.5000e+01  4.5000e+01  4.5000e+01  4.5000e+01  4.5000e+01
4.5000e+01  4.5000e+01  4.5000e+01  4.5000e+01  4.5000e+01  4.5000e+01  4.5000e+01  4.5000e+01  4.5000e+01  4.5000e+01
4.5000e+01  4.5000e+01  4.5000e+01  4.5000e+01  4.5000e+01  4.5000e+01  4.5000e+01  4.5000e+01  4.5000e+01  4.5000e+01
4.5000e+01  4.5000e+01  4.5000e+01  4.5000e+01  4.5000e+01  1.6900e+01  1.6400e+01  1.6100e+01  1.5600e+01  1.5100e+01
1.4000e+01  1.3000e+01  1.2500e+01  1.2000e+01  1.1400e+01  4.5000e+01  4.5000e+01  4.5000e+01  4.5000e+01  4.5000e+01
END GRIDDATA