BEGIN OPTIONS
  SAVE_FLOWS
END OPTIONS

BEGIN GRIDDATA
  ICONVERT
    CONSTANT 1
  SS
    CONSTANT 1.0e-05
  SY
    CONSTANT 0.20
END GRIDDATA

BEGIN PERIOD 1
  STEADY-STATE
END PERIOD