BEGIN OPTIONS
  PRINT_INPUT
  PRINT_FLOWS
  SAVE_FLOWS
END OPTIONS

BEGIN DIMENSIONS
  MAXBOUND 10
END DIMENSIONS

BEGIN PERIOD 1
  1  40  6   1.6900e+01
  1  40  7   1.6400e+01
  1  40  8   1.6100e+01
  1  40  9   1.5600e+01
  1  40  10  1.5100e+01
  1  40  11  1.5100e+01
  1  40  12  1.4000e+01
  1  40  13  1.3000e+01
  1  40  14  1.2500e+01
  1  40  15  1.2000e+01
END PERIOD 1
