BEGIN OPTIONS
  BUDGET FILEOUT freyberg.cbc
  HEAD FILEOUT freyberg.hds
END OPTIONS

BEGIN PERIOD 1
  PRINT BUDGET ALL
  SAVE HEAD ALL
  SAVE BUDGET ALL
END PERIOD
