BEGIN OPTIONS
END OPTIONS

BEGIN TIMING
  TDIS6  freyberg.tdis
END TIMING

BEGIN MODELS
  #modeltype   namefile       modelname
	GWF6    freyberg.nam     GWF_1
END MODELS

BEGIN EXCHANGES
END EXCHANGES

BEGIN SOLUTIONGROUP 1
  MXITER 1
  IMS6 freyberg.ims  GWF_1
END SOLUTIONGROUP