# File generated by Flopy version 3.5.0.dev0 on 10/30/2023 at 09:10:24.
BEGIN options
  SAVE_FLOWS
END options

BEGIN packages
  DIS6  rch.nc  dis
  IC6  rch.ic  ic
  NPF6  rch.nc  npf
  CHD6  rch.nc  chd_0
  RCH6  rch.nc  rcha_0
  OC6  rch.oc  oc
END packages

