# MODFLOW-USGs Basic Package
# MODFLOW Data Set Created by Groundwater Vistas
#    
 UNSTRUCTURED FREE  
CONSTANT  1              IBOUND Layer 1
CONSTANT  1              IBOUND Layer 2
INTERNAL  1  (FREE)  -1  IBOUND Layer 3
 1 1 1 1 1 1 1 1 1
9.990000e+002
CONSTANT 3.000000                    Starting Heads Layer 1
CONSTANT 3.000000                    Starting Heads Layer 2
CONSTANT 3.000000                    Starting Heads Layer 3
