# RCH package for  MODFLOW-USG, generated by Flopy.
         2        50
         6
         1         6 # Stress period 1
CONSTANT    1.000000E-04                           #rech_1                        
INTERNAL               1    (FREE) -1 #irch_1                        
 1 2 3 4 5 6 
        -1        -1
