# Name file for MODFLOW-USG, generated by Flopy version 3.3.4.
#xll:0.0; yll:0.0; rotation:0.0; units:undefined; lenuni:0; start_datetime:None
LIST               7  usg_rch_evt_lak.lst
DISU              29  usg_rch_evt.disu
BAS6               1  usg_rch_evt.bas
SMS               19  usg_rch_evt.sms
OC                22  usg_rch_evt.oc
RCH               18  usg_rch_evt_nrchop2a.rch
EVT               17  usg_rch_evt_nevtop2.evt
LAK               21  usg_rch_evt_lak.lak
CHD              199  usg_rch_evt.chd
LPF               11  usg_rch_evt.lpf
DATA(BINARY)      30  usg_rch_evt_lak.hds REPLACE
DATA(BINARY)      31  usg_rch_evt_lak.ddn REPLACE
DATA(BINARY)      50  usg_rch_evt_lak.cbb REPLACE
