# File generated by Flopy version 3.10.0.dev1 on 02/05/2025 at 13:05:06.
BEGIN options
  PRINT_OPTION  summary
END options

