# NOT generated by Flopy
BEGIN options
  EXPORT_ARRAY_NETCDF
END options

BEGIN griddata
  strt  NETCDF
END griddata
