# NOT generated by Flopy
BEGIN options
  EXPORT_ARRAY_NETCDF
  NCF6  FILEIN  disv01b.disv.ncf
END options

BEGIN dimensions
  NLAY  3
  NCPL  9
  NVERT  16
END dimensions

BEGIN griddata
  top  NETCDF
  botm  NETCDF
  idomain  NETCDF
END griddata

BEGIN vertices
  1  1.00000000E+08  1.00000030E+08
  2  1.00000010E+08  1.00000030E+08
  3  1.00000020E+08  1.00000030E+08
  4  1.00000030E+08  1.00000030E+08
  5  1.00000000E+08  1.00000020E+08
  6  1.00000010E+08  1.00000020E+08
  7  1.00000020E+08  1.00000020E+08
  8  1.00000030E+08  1.00000020E+08
  9  1.00000000E+08  1.00000010E+08
  10  1.00000010E+08  1.00000010E+08
  11  1.00000020E+08  1.00000010E+08
  12  1.00000030E+08  1.00000010E+08
  13  1.00000000E+08  1.00000000E+08
  14  1.00000010E+08  1.00000000E+08
  15  1.00000020E+08  1.00000000E+08
  16  1.00000030E+08  1.00000000E+08
END vertices

BEGIN cell2d
  1  1.00000005E+08  1.00000025E+08  4  1  2  6  5
  2  1.00000015E+08  1.00000025E+08  4  2  3  7  6
  3  1.00000025E+08  1.00000025E+08  4  3  4  8  7
  4  1.00000005E+08  1.00000015E+08  4  5  6  10  9
  5  1.00000015E+08  1.00000015E+08  4  6  7  11  10
  6  1.00000025E+08  1.00000015E+08  4  7  8  12  11
  7  1.00000005E+08  1.00000005E+08  4  9  10  14  13
  8  1.00000015E+08  1.00000005E+08  4  10  11  15  14
  9  1.00000025E+08  1.00000005E+08  4  11  12  16  15
END cell2d

