# File generated by Flopy version 3.5.0.dev0 on 10/30/2023 at 09:00:51.
BEGIN griddata
  strt
    CONSTANT       1.00000000
END griddata

