# MODFLOW2000 Layer Property Flow (LPF) Package
        50  9.990000e+002         0
  0  0  0  0  0  0  0  0  0  0  0  0  0  0  0  0  0  0  0  0  0  0  0  0  0  0  0  0  0  0  0  0  0  0  0  0  0  0  0  0  0  0  0  0  0  0  0  0  0  0
  0  0  0  0  0  0  0  0  0  0  0  0  0  0  0  0  0  0  0  0  0  0  0  0  0  0  0  0  0  0
  0  0  0  0  0  0  0  0  0  0  0  0  0  0  0  0  0  0  0  0  0  0  0  0  0  0  0  0  0  0  0  0  0  0  0  0  0  0  0  0  0  0  0  0  0  0  0  0  0  0
  0  0  0  0  0  0  0  0  0  0  0  0  0  0  0  0  0  0  0  0  0  0  0  0  0  0  0  0  0  0
  1.000000e+000  1.000000e+000  1.000000e+000  1.000000e+000  1.000000e+000  1.000000e+000  1.000000e+000  1.000000e+000  1.000000e+000  1.000000e+000  1.000000e+000  1.000000e+000  1.000000e+000  1.000000e+000  1.000000e+000  1.000000e+000  1.000000e+000  1.000000e+000  1.000000e+000  1.000000e+000
  1.000000e+000  1.000000e+000  1.000000e+000  1.000000e+000  1.000000e+000  1.000000e+000  1.000000e+000  1.000000e+000  1.000000e+000  1.000000e+000  1.000000e+000  1.000000e+000  1.000000e+000  1.000000e+000  1.000000e+000  1.000000e+000  1.000000e+000  1.000000e+000  1.000000e+000  1.000000e+000
  1.000000e+000  1.000000e+000  1.000000e+000  1.000000e+000  1.000000e+000  1.000000e+000  1.000000e+000  1.000000e+000  1.000000e+000  1.000000e+000  1.000000e+000  1.000000e+000  1.000000e+000  1.000000e+000  1.000000e+000  1.000000e+000  1.000000e+000  1.000000e+000  1.000000e+000  1.000000e+000
  1.000000e+000  1.000000e+000  1.000000e+000  1.000000e+000  1.000000e+000  1.000000e+000  1.000000e+000  1.000000e+000  1.000000e+000  1.000000e+000  1.000000e+000  1.000000e+000  1.000000e+000  1.000000e+000  1.000000e+000  1.000000e+000  1.000000e+000  1.000000e+000  1.000000e+000  1.000000e+000
 0 0 0 0 0 0 0 0 0 0 0 0 0 0 0 0 0 0 0 0 0 0 0 0 0 0 0 0 0 0 0 0 0 0 0 0 0 0 0 0 0 0 0 0 0 0 0 0 0 0
 0 0 0 0 0 0 0 0 0 0 0 0 0 0 0 0 0 0 0 0 0 0 0 0 0 0 0 0 0 0
 0 0 0 0 0 0 0 0 0 0 0 0 0 0 0 0 0 0 0 0 0 0 0 0 0 0 0 0 0 0 0 0 0 0 0 0 0 0 0 0 0 0 0 0 0 0 0 0 0 0
 0 0 0 0 0 0 0 0 0 0 0 0 0 0 0 0 0 0 0 0 0 0 0 0 0 0 0 0 0 0
        11     1.000(10e12.4)                   -1     HYDRAULIC CONDUCTIVITY Layer   1
  2.0000e+00  2.0000e+00  2.0000e+00  2.0000e+00  2.0000e+00  2.0000e+00  2.0000e+00  2.0000e+00  2.0000e+00  2.0000e+00
  2.0000e+00  2.0000e+00  2.0000e+00  2.0000e+00  2.0000e+00  2.0000e+00  2.0000e+00  2.0000e+00  2.0000e+00  2.0000e+00
  2.0000e+00  2.0000e+00  2.0000e+00  2.0000e+00  2.0000e+00  2.0000e+00  2.0000e+00  2.0000e+00  2.0000e+00  2.0000e+00
  2.0000e+00  2.0000e+00  2.0000e+00  2.0000e+00  2.0000e+00  2.0000e+00  2.0000e+00  2.0000e+00  2.0000e+00  2.0000e+00
  2.0000e+00  2.0000e+00  2.0000e+00  2.0000e+00  2.0000e+00  2.0000e+00  2.0000e+00  2.0000e+00  2.0000e+00  2.0000e+00
  2.0000e+00  2.0000e+00  2.0000e+00  2.0000e+00  2.0000e+00  2.0000e+00  2.0000e+00  2.0000e+00  2.0000e+00  2.0000e+00
  2.0000e+00  2.0000e+00  2.0000e+00  2.0000e+00  2.0000e+00  2.0000e+00  2.0000e+00  2.0000e+00  2.0000e+00  2.0000e+00
  2.0000e+00  2.0000e+00  2.0000e+00  2.0000e+00  2.0000e+00  2.0000e+00  2.0000e+00  2.0000e+00  2.0000e+00  2.0000e+00
  2.0000e+00  2.0000e+00  2.0000e+00  2.0000e+00  2.0000e+00  2.0000e+00  2.0000e+00  2.0000e+00  2.0000e+00  2.0000e+00
  2.0000e+00  2.0000e+00  2.0000e+00  2.0000e+00  2.0000e+00  2.0000e+00  2.0000e+00  2.0000e+00  2.0000e+00  2.0000e+00
  2.0000e+00  2.0000e+00  2.0000e+00  2.0000e+00  2.0000e+00  2.0000e+00  2.0000e+00  2.0000e+00  2.0000e+00  2.0000e+00
  2.0000e+00  2.0000e+00  2.0000e+00  2.0000e+00  2.0000e+00  2.0000e+00  2.0000e+00  2.0000e+00  2.0000e+00  2.0000e+00
  2.0000e+00  2.0000e+00  2.0000e+00  2.0000e+00  2.0000e+00  2.0000e+00  2.0000e+00  2.0000e+00  2.0000e+00  2.0000e+00
  2.0000e+00  2.0000e+00  2.0000e+00  2.0000e+00  2.0000e+00  2.0000e+00  2.0000e+00  2.0000e+00  2.0000e+00  2.0000e+00
  2.0000e+00  2.0000e+00  2.0000e+00  2.0000e+00  2.0000e+00  2.0000e+00  2.0000e+00  2.0000e+00  2.0000e+00  2.0000e+00
  2.0000e+00  2.0000e+00  2.0000e+00  2.0000e+00  2.0000e+00  2.0000e+00  2.0000e+00  2.0000e+00  2.0000e+00  2.0000e+00
  2.0000e+00  2.0000e+00  2.0000e+00  2.0000e+00  2.0000e+00  2.0000e+00  2.0000e+00  2.0000e+00  2.0000e+00  2.0000e+00
  2.0000e+00  2.0000e+00  2.0000e+00  2.0000e+00  2.0000e+00  2.0000e+00  2.0000e+00  2.0000e+00  2.0000e+00  2.0000e+00
  2.0000e+00  2.0000e+00  2.0000e+00  2.0000e+00  2.0000e+00  2.0000e+00  2.0000e+00  2.0000e+00  2.0000e+00  2.0000e+00
  2.0000e+00  2.0000e+00  2.0000e+00  2.0000e+00  2.0000e+00  2.0000e+00  2.0000e+00  2.0000e+00  2.0000e+00  2.0000e+00
  2.0000e+00  2.0000e+00  2.0000e+00  2.0000e+00  2.0000e+00  2.0000e+00  2.0000e+00  2.0000e+00  2.0000e+00  2.0000e+00
  2.0000e+00  2.0000e+00  2.0000e+00  2.0000e+00  2.0000e+00  2.0000e+00  2.0000e+00  2.0000e+00  2.0000e+00  2.0000e+00
  2.0000e+00  2.0000e+00  2.0000e+00  2.0000e+00  2.0000e+00  2.0000e+00  2.0000e+00  2.0000e+00  2.0000e+00  2.0000e+00
  2.0000e+00  2.0000e+00  2.0000e+00  2.0000e+00  2.0000e+00  2.0000e+00  2.0000e+00  2.0000e+00  2.0000e+00  2.0000e+00
  2.0000e+00  2.0000e+00  2.0000e+00  2.0000e+00  2.0000e+00  2.0000e+00  2.0000e+00  2.0000e+00  2.0000e+00  2.0000e+00
  2.0000e+00  2.0000e+00  2.0000e+00  2.0000e+00  2.0000e+00  2.0000e+00  2.0000e+00  2.0000e+00  2.0000e+00  2.0000e+00
  2.0000e+00  2.0000e+00  2.0000e+00  2.0000e+00  2.0000e+00  2.0000e+00  2.0000e+00  2.0000e+00  2.0000e+00  2.0000e+00
  2.0000e+00  2.0000e+00  2.0000e+00  2.0000e+00  2.0000e+00  2.0000e+00  2.0000e+00  2.0000e+00  2.0000e+00  2.0000e+00
  2.0000e+00  2.0000e+00  2.0000e+00  2.0000e+00  2.0000e+00  2.0000e+00  2.0000e+00  2.0000e+00  2.0000e+00  2.0000e+00
  2.0000e+00  2.0000e+00  2.0000e+00  2.0000e+00  2.0000e+00  2.0000e+00  2.0000e+00  2.0000e+00  2.0000e+00  2.0000e+00
        11     1.000(10e12.4)                   -1     VERTICAL HYDRAULIC CONDUCTIVITY Layer   1
  2.0000e+00  2.0000e+00  2.0000e+00  2.0000e+00  2.0000e+00  2.0000e+00  2.0000e+00  2.0000e+00  2.0000e+00  2.0000e+00
  2.0000e+00  2.0000e+00  2.0000e+00  2.0000e+00  2.0000e+00  2.0000e+00  2.0000e+00  2.0000e+00  2.0000e+00  2.0000e+00
  2.0000e+00  2.0000e+00  2.0000e+00  2.0000e+00  2.0000e+00  2.0000e+00  2.0000e+00  2.0000e+00  2.0000e+00  2.0000e+00
  2.0000e+00  2.0000e+00  2.0000e+00  2.0000e+00  2.0000e+00  2.0000e+00  2.0000e+00  2.0000e+00  2.0000e+00  2.0000e+00
  2.0000e+00  2.0000e+00  2.0000e+00  2.0000e+00  2.0000e+00  2.0000e+00  2.0000e+00  2.0000e+00  2.0000e+00  2.0000e+00
  2.0000e+00  2.0000e+00  2.0000e+00  2.0000e+00  2.0000e+00  2.0000e+00  2.0000e+00  2.0000e+00  2.0000e+00  2.0000e+00
  2.0000e+00  2.0000e+00  2.0000e+00  2.0000e+00  2.0000e+00  2.0000e+00  2.0000e+00  2.0000e+00  2.0000e+00  2.0000e+00
  2.0000e+00  2.0000e+00  2.0000e+00  2.0000e+00  2.0000e+00  2.0000e+00  2.0000e+00  2.0000e+00  2.0000e+00  2.0000e+00
  2.0000e+00  2.0000e+00  2.0000e+00  2.0000e+00  2.0000e+00  2.0000e+00  2.0000e+00  2.0000e+00  2.0000e+00  2.0000e+00
  2.0000e+00  2.0000e+00  2.0000e+00  2.0000e+00  2.0000e+00  2.0000e+00  2.0000e+00  2.0000e+00  2.0000e+00  2.0000e+00
  2.0000e+00  2.0000e+00  2.0000e+00  2.0000e+00  2.0000e+00  2.0000e+00  2.0000e+00  2.0000e+00  2.0000e+00  2.0000e+00
  2.0000e+00  2.0000e+00  2.0000e+00  2.0000e+00  2.0000e+00  2.0000e+00  2.0000e+00  2.0000e+00  2.0000e+00  2.0000e+00
  2.0000e+00  2.0000e+00  2.0000e+00  2.0000e+00  2.0000e+00  2.0000e+00  2.0000e+00  2.0000e+00  2.0000e+00  2.0000e+00
  2.0000e+00  2.0000e+00  2.0000e+00  2.0000e+00  2.0000e+00  2.0000e+00  2.0000e+00  2.0000e+00  2.0000e+00  2.0000e+00
  2.0000e+00  2.0000e+00  2.0000e+00  2.0000e+00  2.0000e+00  2.0000e+00  2.0000e+00  2.0000e+00  2.0000e+00  2.0000e+00
  2.0000e+00  2.0000e+00  2.0000e+00  2.0000e+00  2.0000e+00  2.0000e+00  2.0000e+00  2.0000e+00  2.0000e+00  2.0000e+00
  2.0000e+00  2.0000e+00  2.0000e+00  2.0000e+00  2.0000e+00  2.0000e+00  2.0000e+00  2.0000e+00  2.0000e+00  2.0000e+00
  2.0000e+00  2.0000e+00  2.0000e+00  2.0000e+00  2.0000e+00  2.0000e+00  2.0000e+00  2.0000e+00  2.0000e+00  2.0000e+00
  2.0000e+00  2.0000e+00  2.0000e+00  2.0000e+00  2.0000e+00  2.0000e+00  2.0000e+00  2.0000e+00  2.0000e+00  2.0000e+00
  2.0000e+00  2.0000e+00  2.0000e+00  2.0000e+00  2.0000e+00  2.0000e+00  2.0000e+00  2.0000e+00  2.0000e+00  2.0000e+00
  2.0000e+00  2.0000e+00  2.0000e+00  2.0000e+00  2.0000e+00  2.0000e+00  2.0000e+00  2.0000e+00  2.0000e+00  2.0000e+00
  2.0000e+00  2.0000e+00  2.0000e+00  2.0000e+00  2.0000e+00  2.0000e+00  2.0000e+00  2.0000e+00  2.0000e+00  2.0000e+00
  2.0000e+00  2.0000e+00  2.0000e+00  2.0000e+00  2.0000e+00  2.0000e+00  2.0000e+00  2.0000e+00  2.0000e+00  2.0000e+00
  2.0000e+00  2.0000e+00  2.0000e+00  2.0000e+00  2.0000e+00  2.0000e+00  2.0000e+00  2.0000e+00  2.0000e+00  2.0000e+00
  2.0000e+00  2.0000e+00  2.0000e+00  2.0000e+00  2.0000e+00  2.0000e+00  2.0000e+00  2.0000e+00  2.0000e+00  2.0000e+00
  2.0000e+00  2.0000e+00  2.0000e+00  2.0000e+00  2.0000e+00  2.0000e+00  2.0000e+00  2.0000e+00  2.0000e+00  2.0000e+00
  2.0000e+00  2.0000e+00  2.0000e+00  2.0000e+00  2.0000e+00  2.0000e+00  2.0000e+00  2.0000e+00  2.0000e+00  2.0000e+00
  2.0000e+00  2.0000e+00  2.0000e+00  2.0000e+00  2.0000e+00  2.0000e+00  2.0000e+00  2.0000e+00  2.0000e+00  2.0000e+00
  2.0000e+00  2.0000e+00  2.0000e+00  2.0000e+00  2.0000e+00  2.0000e+00  2.0000e+00  2.0000e+00  2.0000e+00  2.0000e+00
  2.0000e+00  2.0000e+00  2.0000e+00  2.0000e+00  2.0000e+00  2.0000e+00  2.0000e+00  2.0000e+00  2.0000e+00  2.0000e+00
        11     1.000(10e12.4)                   -1     PRIMARY STORAGE Layer   1
  0.0000e+00  0.0000e+00  0.0000e+00  0.0000e+00  0.0000e+00  0.0000e+00  0.0000e+00  0.0000e+00  0.0000e+00  0.0000e+00
  0.0000e+00  0.0000e+00  0.0000e+00  0.0000e+00  0.0000e+00  0.0000e+00  0.0000e+00  0.0000e+00  0.0000e+00  0.0000e+00
  0.0000e+00  0.0000e+00  0.0000e+00  0.0000e+00  0.0000e+00  0.0000e+00  0.0000e+00  0.0000e+00  0.0000e+00  0.0000e+00
  0.0000e+00  0.0000e+00  0.0000e+00  0.0000e+00  0.0000e+00  0.0000e+00  0.0000e+00  0.0000e+00  0.0000e+00  0.0000e+00
  0.0000e+00  0.0000e+00  0.0000e+00  0.0000e+00  0.0000e+00  0.0000e+00  0.0000e+00  0.0000e+00  0.0000e+00  0.0000e+00
  0.0000e+00  0.0000e+00  0.0000e+00  0.0000e+00  0.0000e+00  0.0000e+00  0.0000e+00  0.0000e+00  0.0000e+00  0.0000e+00
  0.0000e+00  0.0000e+00  0.0000e+00  0.0000e+00  0.0000e+00  0.0000e+00  0.0000e+00  0.0000e+00  0.0000e+00  0.0000e+00
  0.0000e+00  0.0000e+00  0.0000e+00  0.0000e+00  0.0000e+00  0.0000e+00  0.0000e+00  0.0000e+00  0.0000e+00  0.0000e+00
  0.0000e+00  0.0000e+00  0.0000e+00  0.0000e+00  0.0000e+00  0.0000e+00  0.0000e+00  0.0000e+00  0.0000e+00  0.0000e+00
  0.0000e+00  0.0000e+00  0.0000e+00  0.0000e+00  0.0000e+00  0.0000e+00  0.0000e+00  0.0000e+00  0.0000e+00  0.0000e+00
  0.0000e+00  0.0000e+00  0.0000e+00  0.0000e+00  0.0000e+00  0.0000e+00  0.0000e+00  0.0000e+00  0.0000e+00  0.0000e+00
  0.0000e+00  0.0000e+00  0.0000e+00  0.0000e+00  0.0000e+00  0.0000e+00  0.0000e+00  0.0000e+00  0.0000e+00  0.0000e+00
  0.0000e+00  0.0000e+00  0.0000e+00  0.0000e+00  0.0000e+00  0.0000e+00  0.0000e+00  0.0000e+00  0.0000e+00  0.0000e+00
  0.0000e+00  0.0000e+00  0.0000e+00  0.0000e+00  0.0000e+00  0.0000e+00  0.0000e+00  0.0000e+00  0.0000e+00  0.0000e+00
  0.0000e+00  0.0000e+00  0.0000e+00  0.0000e+00  0.0000e+00  0.0000e+00  0.0000e+00  0.0000e+00  0.0000e+00  0.0000e+00
  0.0000e+00  0.0000e+00  0.0000e+00  0.0000e+00  0.0000e+00  0.0000e+00  0.0000e+00  0.0000e+00  0.0000e+00  0.0000e+00
  0.0000e+00  0.0000e+00  0.0000e+00  0.0000e+00  0.0000e+00  0.0000e+00  0.0000e+00  0.0000e+00  0.0000e+00  0.0000e+00
  0.0000e+00  0.0000e+00  0.0000e+00  0.0000e+00  0.0000e+00  0.0000e+00  0.0000e+00  0.0000e+00  0.0000e+00  0.0000e+00
  0.0000e+00  0.0000e+00  0.0000e+00  0.0000e+00  0.0000e+00  0.0000e+00  0.0000e+00  0.0000e+00  0.0000e+00  0.0000e+00
  0.0000e+00  0.0000e+00  0.0000e+00  0.0000e+00  0.0000e+00  0.0000e+00  0.0000e+00  0.0000e+00  0.0000e+00  0.0000e+00
  0.0000e+00  0.0000e+00  0.0000e+00  0.0000e+00  0.0000e+00  0.0000e+00  0.0000e+00  0.0000e+00  0.0000e+00  0.0000e+00
  0.0000e+00  0.0000e+00  0.0000e+00  0.0000e+00  0.0000e+00  0.0000e+00  0.0000e+00  0.0000e+00  0.0000e+00  0.0000e+00
  0.0000e+00  0.0000e+00  0.0000e+00  0.0000e+00  0.0000e+00  0.0000e+00  0.0000e+00  0.0000e+00  0.0000e+00  0.0000e+00
  0.0000e+00  0.0000e+00  0.0000e+00  0.0000e+00  0.0000e+00  0.0000e+00  0.0000e+00  0.0000e+00  0.0000e+00  0.0000e+00
  0.0000e+00  0.0000e+00  0.0000e+00  0.0000e+00  0.0000e+00  0.0000e+00  0.0000e+00  0.0000e+00  0.0000e+00  0.0000e+00
  0.0000e+00  0.0000e+00  0.0000e+00  0.0000e+00  0.0000e+00  0.0000e+00  0.0000e+00  0.0000e+00  0.0000e+00  0.0000e+00
  0.0000e+00  0.0000e+00  0.0000e+00  0.0000e+00  0.0000e+00  0.0000e+00  0.0000e+00  0.0000e+00  0.0000e+00  0.0000e+00
  0.0000e+00  0.0000e+00  0.0000e+00  0.0000e+00  0.0000e+00  0.0000e+00  0.0000e+00  0.0000e+00  0.0000e+00  0.0000e+00
  0.0000e+00  0.0000e+00  0.0000e+00  0.0000e+00  0.0000e+00  0.0000e+00  0.0000e+00  0.0000e+00  0.0000e+00  0.0000e+00
  0.0000e+00  0.0000e+00  0.0000e+00  0.0000e+00  0.0000e+00  0.0000e+00  0.0000e+00  0.0000e+00  0.0000e+00  0.0000e+00
        11     1.000(10e12.4)                   -1     HYDRAULIC CONDUCTIVITY Layer   2
  2.0000e+00  2.0000e+00  2.0000e+00  2.0000e+00  2.0000e+00  2.0000e+00  2.0000e+00  2.0000e+00  2.0000e+00  2.0000e+00
  2.0000e+00  2.0000e+00  2.0000e+00  2.0000e+00  2.0000e+00  2.0000e+00  2.0000e+00  2.0000e+00  2.0000e+00  2.0000e+00
  2.0000e+00  2.0000e+00  2.0000e+00  2.0000e+00  2.0000e+00  2.0000e+00  2.0000e+00  2.0000e+00  2.0000e+00  2.0000e+00
  2.0000e+00  2.0000e+00  2.0000e+00  2.0000e+00  2.0000e+00  2.0000e+00  2.0000e+00  2.0000e+00  2.0000e+00  2.0000e+00
  2.0000e+00  2.0000e+00  2.0000e+00  2.0000e+00  2.0000e+00  2.0000e+00  2.0000e+00  2.0000e+00  2.0000e+00  2.0000e+00
  2.0000e+00  2.0000e+00  2.0000e+00  2.0000e+00  2.0000e+00  2.0000e+00  2.0000e+00  2.0000e+00  2.0000e+00  2.0000e+00
  2.0000e+00  2.0000e+00  2.0000e+00  2.0000e+00  2.0000e+00  2.0000e+00  2.0000e+00  2.0000e+00  2.0000e+00  2.0000e+00
  2.0000e+00  2.0000e+00  2.0000e+00  2.0000e+00  2.0000e+00  2.0000e+00  2.0000e+00  2.0000e+00  2.0000e+00  2.0000e+00
  2.0000e+00  2.0000e+00  2.0000e+00  2.0000e+00  2.0000e+00  2.0000e+00  2.0000e+00  2.0000e+00  2.0000e+00  2.0000e+00
  2.0000e+00  2.0000e+00  2.0000e+00  2.0000e+00  2.0000e+00  2.0000e+00  2.0000e+00  2.0000e+00  2.0000e+00  2.0000e+00
  2.0000e+00  2.0000e+00  2.0000e+00  2.0000e+00  2.0000e+00  2.0000e+00  2.0000e+00  2.0000e+00  2.0000e+00  2.0000e+00
  2.0000e+00  2.0000e+00  2.0000e+00  2.0000e+00  2.0000e+00  2.0000e+00  2.0000e+00  2.0000e+00  2.0000e+00  2.0000e+00
  2.0000e+00  2.0000e+00  2.0000e+00  2.0000e+00  2.0000e+00  2.0000e+00  2.0000e+00  2.0000e+00  2.0000e+00  2.0000e+00
  2.0000e+00  2.0000e+00  2.0000e+00  2.0000e+00  2.0000e+00  2.0000e+00  2.0000e+00  2.0000e+00  2.0000e+00  2.0000e+00
  2.0000e+00  2.0000e+00  2.0000e+00  2.0000e+00  2.0000e+00  2.0000e+00  2.0000e+00  2.0000e+00  2.0000e+00  2.0000e+00
  2.0000e+00  2.0000e+00  2.0000e+00  2.0000e+00  2.0000e+00  2.0000e+00  2.0000e+00  2.0000e+00  2.0000e+00  2.0000e+00
  2.0000e+00  2.0000e+00  2.0000e+00  2.0000e+00  2.0000e+00  2.0000e+00  2.0000e+00  2.0000e+00  2.0000e+00  2.0000e+00
  2.0000e+00  2.0000e+00  2.0000e+00  2.0000e+00  2.0000e+00  2.0000e+00  2.0000e+00  2.0000e+00  2.0000e+00  2.0000e+00
  2.0000e+00  2.0000e+00  2.0000e+00  2.0000e+00  2.0000e+00  2.0000e+00  2.0000e+00  2.0000e+00  2.0000e+00  2.0000e+00
  2.0000e+00  2.0000e+00  2.0000e+00  2.0000e+00  2.0000e+00  2.0000e+00  2.0000e+00  2.0000e+00  2.0000e+00  2.0000e+00
  2.0000e+00  2.0000e+00  2.0000e+00  2.0000e+00  2.0000e+00  2.0000e+00  2.0000e+00  2.0000e+00  2.0000e+00  2.0000e+00
  2.0000e+00  2.0000e+00  2.0000e+00  2.0000e+00  2.0000e+00  2.0000e+00  2.0000e+00  2.0000e+00  2.0000e+00  2.0000e+00
  2.0000e+00  2.0000e+00  2.0000e+00  2.0000e+00  2.0000e+00  2.0000e+00  2.0000e+00  2.0000e+00  2.0000e+00  2.0000e+00
  2.0000e+00  2.0000e+00  2.0000e+00  2.0000e+00  2.0000e+00  2.0000e+00  2.0000e+00  2.0000e+00  2.0000e+00  2.0000e+00
  2.0000e+00  2.0000e+00  2.0000e+00  2.0000e+00  2.0000e+00  2.0000e+00  2.0000e+00  2.0000e+00  2.0000e+00  2.0000e+00
  2.0000e+00  2.0000e+00  2.0000e+00  2.0000e+00  2.0000e+00  2.0000e+00  2.0000e+00  2.0000e+00  2.0000e+00  2.0000e+00
  2.0000e+00  2.0000e+00  2.0000e+00  2.0000e+00  2.0000e+00  2.0000e+00  2.0000e+00  2.0000e+00  2.0000e+00  2.0000e+00
  2.0000e+00  2.0000e+00  2.0000e+00  2.0000e+00  2.0000e+00  2.0000e+00  2.0000e+00  2.0000e+00  2.0000e+00  2.0000e+00
  2.0000e+00  2.0000e+00  2.0000e+00  2.0000e+00  2.0000e+00  2.0000e+00  2.0000e+00  2.0000e+00  2.0000e+00  2.0000e+00
  2.0000e+00  2.0000e+00  2.0000e+00  2.0000e+00  2.0000e+00  2.0000e+00  2.0000e+00  2.0000e+00  2.0000e+00  2.0000e+00
        11     1.000(10e12.4)                   -1     VERTICAL HYDRAULIC CONDUCTIVITY Layer   2
  2.0000e+00  2.0000e+00  2.0000e+00  2.0000e+00  2.0000e+00  2.0000e+00  2.0000e+00  2.0000e+00  2.0000e+00  2.0000e+00
  2.0000e+00  2.0000e+00  2.0000e+00  2.0000e+00  2.0000e+00  2.0000e+00  2.0000e+00  2.0000e+00  2.0000e+00  2.0000e+00
  2.0000e+00  2.0000e+00  2.0000e+00  2.0000e+00  2.0000e+00  2.0000e+00  2.0000e+00  2.0000e+00  2.0000e+00  2.0000e+00
  2.0000e+00  2.0000e+00  2.0000e+00  2.0000e+00  2.0000e+00  2.0000e+00  2.0000e+00  2.0000e+00  2.0000e+00  2.0000e+00
  2.0000e+00  2.0000e+00  2.0000e+00  2.0000e+00  2.0000e+00  2.0000e+00  2.0000e+00  2.0000e+00  2.0000e+00  2.0000e+00
  2.0000e+00  2.0000e+00  2.0000e+00  2.0000e+00  2.0000e+00  2.0000e+00  2.0000e+00  2.0000e+00  2.0000e+00  2.0000e+00
  2.0000e+00  2.0000e+00  2.0000e+00  2.0000e+00  2.0000e+00  2.0000e+00  2.0000e+00  2.0000e+00  2.0000e+00  2.0000e+00
  2.0000e+00  2.0000e+00  2.0000e+00  2.0000e+00  2.0000e+00  2.0000e+00  2.0000e+00  2.0000e+00  2.0000e+00  2.0000e+00
  2.0000e+00  2.0000e+00  2.0000e+00  2.0000e+00  2.0000e+00  2.0000e+00  2.0000e+00  2.0000e+00  2.0000e+00  2.0000e+00
  2.0000e+00  2.0000e+00  2.0000e+00  2.0000e+00  2.0000e+00  2.0000e+00  2.0000e+00  2.0000e+00  2.0000e+00  2.0000e+00
  2.0000e+00  2.0000e+00  2.0000e+00  2.0000e+00  2.0000e+00  2.0000e+00  2.0000e+00  2.0000e+00  2.0000e+00  2.0000e+00
  2.0000e+00  2.0000e+00  2.0000e+00  2.0000e+00  2.0000e+00  2.0000e+00  2.0000e+00  2.0000e+00  2.0000e+00  2.0000e+00
  2.0000e+00  2.0000e+00  2.0000e+00  2.0000e+00  2.0000e+00  2.0000e+00  2.0000e+00  2.0000e+00  2.0000e+00  2.0000e+00
  2.0000e+00  2.0000e+00  2.0000e+00  2.0000e+00  2.0000e+00  2.0000e+00  2.0000e+00  2.0000e+00  2.0000e+00  2.0000e+00
  2.0000e+00  2.0000e+00  2.0000e+00  2.0000e+00  2.0000e+00  2.0000e+00  2.0000e+00  2.0000e+00  2.0000e+00  2.0000e+00
  2.0000e+00  2.0000e+00  2.0000e+00  2.0000e+00  2.0000e+00  2.0000e+00  2.0000e+00  2.0000e+00  2.0000e+00  2.0000e+00
  2.0000e+00  2.0000e+00  2.0000e+00  2.0000e+00  2.0000e+00  2.0000e+00  2.0000e+00  2.0000e+00  2.0000e+00  2.0000e+00
  2.0000e+00  2.0000e+00  2.0000e+00  2.0000e+00  2.0000e+00  2.0000e+00  2.0000e+00  2.0000e+00  2.0000e+00  2.0000e+00
  2.0000e+00  2.0000e+00  2.0000e+00  2.0000e+00  2.0000e+00  2.0000e+00  2.0000e+00  2.0000e+00  2.0000e+00  2.0000e+00
  2.0000e+00  2.0000e+00  2.0000e+00  2.0000e+00  2.0000e+00  2.0000e+00  2.0000e+00  2.0000e+00  2.0000e+00  2.0000e+00
  2.0000e+00  2.0000e+00  2.0000e+00  2.0000e+00  2.0000e+00  2.0000e+00  2.0000e+00  2.0000e+00  2.0000e+00  2.0000e+00
  2.0000e+00  2.0000e+00  2.0000e+00  2.0000e+00  2.0000e+00  2.0000e+00  2.0000e+00  2.0000e+00  2.0000e+00  2.0000e+00
  2.0000e+00  2.0000e+00  2.0000e+00  2.0000e+00  2.0000e+00  2.0000e+00  2.0000e+00  2.0000e+00  2.0000e+00  2.0000e+00
  2.0000e+00  2.0000e+00  2.0000e+00  2.0000e+00  2.0000e+00  2.0000e+00  2.0000e+00  2.0000e+00  2.0000e+00  2.0000e+00
  2.0000e+00  2.0000e+00  2.0000e+00  2.0000e+00  2.0000e+00  2.0000e+00  2.0000e+00  2.0000e+00  2.0000e+00  2.0000e+00
  2.0000e+00  2.0000e+00  2.0000e+00  2.0000e+00  2.0000e+00  2.0000e+00  2.0000e+00  2.0000e+00  2.0000e+00  2.0000e+00
  2.0000e+00  2.0000e+00  2.0000e+00  2.0000e+00  2.0000e+00  2.0000e+00  2.0000e+00  2.0000e+00  2.0000e+00  2.0000e+00
  2.0000e+00  2.0000e+00  2.0000e+00  2.0000e+00  2.0000e+00  2.0000e+00  2.0000e+00  2.0000e+00  2.0000e+00  2.0000e+00
  2.0000e+00  2.0000e+00  2.0000e+00  2.0000e+00  2.0000e+00  2.0000e+00  2.0000e+00  2.0000e+00  2.0000e+00  2.0000e+00
  2.0000e+00  2.0000e+00  2.0000e+00  2.0000e+00  2.0000e+00  2.0000e+00  2.0000e+00  2.0000e+00  2.0000e+00  2.0000e+00
        11     1.000(10e12.4)                   -1     PRIMARY STORAGE Layer   2
  0.0000e+00  0.0000e+00  0.0000e+00  0.0000e+00  0.0000e+00  0.0000e+00  0.0000e+00  0.0000e+00  0.0000e+00  0.0000e+00
  0.0000e+00  0.0000e+00  0.0000e+00  0.0000e+00  0.0000e+00  0.0000e+00  0.0000e+00  0.0000e+00  0.0000e+00  0.0000e+00
  0.0000e+00  0.0000e+00  0.0000e+00  0.0000e+00  0.0000e+00  0.0000e+00  0.0000e+00  0.0000e+00  0.0000e+00  0.0000e+00
  0.0000e+00  0.0000e+00  0.0000e+00  0.0000e+00  0.0000e+00  0.0000e+00  0.0000e+00  0.0000e+00  0.0000e+00  0.0000e+00
  0.0000e+00  0.0000e+00  0.0000e+00  0.0000e+00  0.0000e+00  0.0000e+00  0.0000e+00  0.0000e+00  0.0000e+00  0.0000e+00
  0.0000e+00  0.0000e+00  0.0000e+00  0.0000e+00  0.0000e+00  0.0000e+00  0.0000e+00  0.0000e+00  0.0000e+00  0.0000e+00
  0.0000e+00  0.0000e+00  0.0000e+00  0.0000e+00  0.0000e+00  0.0000e+00  0.0000e+00  0.0000e+00  0.0000e+00  0.0000e+00
  0.0000e+00  0.0000e+00  0.0000e+00  0.0000e+00  0.0000e+00  0.0000e+00  0.0000e+00  0.0000e+00  0.0000e+00  0.0000e+00
  0.0000e+00  0.0000e+00  0.0000e+00  0.0000e+00  0.0000e+00  0.0000e+00  0.0000e+00  0.0000e+00  0.0000e+00  0.0000e+00
  0.0000e+00  0.0000e+00  0.0000e+00  0.0000e+00  0.0000e+00  0.0000e+00  0.0000e+00  0.0000e+00  0.0000e+00  0.0000e+00
  0.0000e+00  0.0000e+00  0.0000e+00  0.0000e+00  0.0000e+00  0.0000e+00  0.0000e+00  0.0000e+00  0.0000e+00  0.0000e+00
  0.0000e+00  0.0000e+00  0.0000e+00  0.0000e+00  0.0000e+00  0.0000e+00  0.0000e+00  0.0000e+00  0.0000e+00  0.0000e+00
  0.0000e+00  0.0000e+00  0.0000e+00  0.0000e+00  0.0000e+00  0.0000e+00  0.0000e+00  0.0000e+00  0.0000e+00  0.0000e+00
  0.0000e+00  0.0000e+00  0.0000e+00  0.0000e+00  0.0000e+00  0.0000e+00  0.0000e+00  0.0000e+00  0.0000e+00  0.0000e+00
  0.0000e+00  0.0000e+00  0.0000e+00  0.0000e+00  0.0000e+00  0.0000e+00  0.0000e+00  0.0000e+00  0.0000e+00  0.0000e+00
  0.0000e+00  0.0000e+00  0.0000e+00  0.0000e+00  0.0000e+00  0.0000e+00  0.0000e+00  0.0000e+00  0.0000e+00  0.0000e+00
  0.0000e+00  0.0000e+00  0.0000e+00  0.0000e+00  0.0000e+00  0.0000e+00  0.0000e+00  0.0000e+00  0.0000e+00  0.0000e+00
  0.0000e+00  0.0000e+00  0.0000e+00  0.0000e+00  0.0000e+00  0.0000e+00  0.0000e+00  0.0000e+00  0.0000e+00  0.0000e+00
  0.0000e+00  0.0000e+00  0.0000e+00  0.0000e+00  0.0000e+00  0.0000e+00  0.0000e+00  0.0000e+00  0.0000e+00  0.0000e+00
  0.0000e+00  0.0000e+00  0.0000e+00  0.0000e+00  0.0000e+00  0.0000e+00  0.0000e+00  0.0000e+00  0.0000e+00  0.0000e+00
  0.0000e+00  0.0000e+00  0.0000e+00  0.0000e+00  0.0000e+00  0.0000e+00  0.0000e+00  0.0000e+00  0.0000e+00  0.0000e+00
  0.0000e+00  0.0000e+00  0.0000e+00  0.0000e+00  0.0000e+00  0.0000e+00  0.0000e+00  0.0000e+00  0.0000e+00  0.0000e+00
  0.0000e+00  0.0000e+00  0.0000e+00  0.0000e+00  0.0000e+00  0.0000e+00  0.0000e+00  0.0000e+00  0.0000e+00  0.0000e+00
  0.0000e+00  0.0000e+00  0.0000e+00  0.0000e+00  0.0000e+00  0.0000e+00  0.0000e+00  0.0000e+00  0.0000e+00  0.0000e+00
  0.0000e+00  0.0000e+00  0.0000e+00  0.0000e+00  0.0000e+00  0.0000e+00  0.0000e+00  0.0000e+00  0.0000e+00  0.0000e+00
  0.0000e+00  0.0000e+00  0.0000e+00  0.0000e+00  0.0000e+00  0.0000e+00  0.0000e+00  0.0000e+00  0.0000e+00  0.0000e+00
  0.0000e+00  0.0000e+00  0.0000e+00  0.0000e+00  0.0000e+00  0.0000e+00  0.0000e+00  0.0000e+00  0.0000e+00  0.0000e+00
  0.0000e+00  0.0000e+00  0.0000e+00  0.0000e+00  0.0000e+00  0.0000e+00  0.0000e+00  0.0000e+00  0.0000e+00  0.0000e+00
  0.0000e+00  0.0000e+00  0.0000e+00  0.0000e+00  0.0000e+00  0.0000e+00  0.0000e+00  0.0000e+00  0.0000e+00  0.0000e+00
  0.0000e+00  0.0000e+00  0.0000e+00  0.0000e+00  0.0000e+00  0.0000e+00  0.0000e+00  0.0000e+00  0.0000e+00  0.0000e+00
        11     1.000(10e12.4)                   -1     HYDRAULIC CONDUCTIVITY Layer   3
  2.0000e+00  2.0000e+00  2.0000e+00  2.0000e+00  2.0000e+00  2.0000e+00  2.0000e+00  2.0000e+00  2.0000e+00  2.0000e+00
  2.0000e+00  2.0000e+00  2.0000e+00  2.0000e+00  2.0000e+00  2.0000e+00  2.0000e+00  2.0000e+00  2.0000e+00  2.0000e+00
  2.0000e+00  2.0000e+00  2.0000e+00  2.0000e+00  2.0000e+00  2.0000e+00  2.0000e+00  2.0000e+00  2.0000e+00  2.0000e+00
  2.0000e+00  2.0000e+00  2.0000e+00  2.0000e+00  2.0000e+00  2.0000e+00  2.0000e+00  2.0000e+00  2.0000e+00  2.0000e+00
  2.0000e+00  2.0000e+00  2.0000e+00  2.0000e+00  2.0000e+00  2.0000e+00  2.0000e+00  2.0000e+00  2.0000e+00  2.0000e+00
  2.0000e+00  2.0000e+00  2.0000e+00  2.0000e+00  2.0000e+00  2.0000e+00  2.0000e+00  2.0000e+00  2.0000e+00  2.0000e+00
  2.0000e+00  2.0000e+00  2.0000e+00  2.0000e+00  2.0000e+00  2.0000e+00  2.0000e+00  2.0000e+00  2.0000e+00  2.0000e+00
  2.0000e+00  2.0000e+00  2.0000e+00  2.0000e+00  2.0000e+00  2.0000e+00  2.0000e+00  2.0000e+00  2.0000e+00  2.0000e+00
  2.0000e+00  2.0000e+00  2.0000e+00  2.0000e+00  2.0000e+00  2.0000e+00  2.0000e+00  2.0000e+00  2.0000e+00  2.0000e+00
  2.0000e+00  2.0000e+00  2.0000e+00  2.0000e+00  2.0000e+00  2.0000e+00  2.0000e+00  2.0000e+00  2.0000e+00  2.0000e+00
  2.0000e+00  2.0000e+00  2.0000e+00  2.0000e+00  2.0000e+00  2.0000e+00  2.0000e+00  2.0000e+00  2.0000e+00  2.0000e+00
  2.0000e+00  2.0000e+00  2.0000e+00  2.0000e+00  2.0000e+00  2.0000e+00  2.0000e+00  2.0000e+00  2.0000e+00  2.0000e+00
  2.0000e+00  2.0000e+00  2.0000e+00  2.0000e+00  2.0000e+00  2.0000e+00  2.0000e+00  2.0000e+00  2.0000e+00  2.0000e+00
  2.0000e+00  2.0000e+00  2.0000e+00  2.0000e+00  2.0000e+00  2.0000e+00  2.0000e+00  2.0000e+00  2.0000e+00  2.0000e+00
  2.0000e+00  2.0000e+00  2.0000e+00  2.0000e+00  2.0000e+00  2.0000e+00  2.0000e+00  2.0000e+00  2.0000e+00  2.0000e+00
  2.0000e+00  2.0000e+00  2.0000e+00  2.0000e+00  2.0000e+00  2.0000e+00  2.0000e+00  2.0000e+00  2.0000e+00  2.0000e+00
  2.0000e+00  2.0000e+00  2.0000e+00  2.0000e+00  2.0000e+00  2.0000e+00  2.0000e+00  2.0000e+00  2.0000e+00  2.0000e+00
  2.0000e+00  2.0000e+00  2.0000e+00  2.0000e+00  2.0000e+00  2.0000e+00  2.0000e+00  2.0000e+00  2.0000e+00  2.0000e+00
  2.0000e+00  2.0000e+00  2.0000e+00  2.0000e+00  2.0000e+00  2.0000e+00  2.0000e+00  2.0000e+00  2.0000e+00  2.0000e+00
  2.0000e+00  2.0000e+00  2.0000e+00  2.0000e+00  2.0000e+00  2.0000e+00  2.0000e+00  2.0000e+00  2.0000e+00  2.0000e+00
  2.0000e+00  2.0000e+00  2.0000e+00  2.0000e+00  2.0000e+00  2.0000e+00  2.0000e+00  2.0000e+00  2.0000e+00  2.0000e+00
  2.0000e+00  2.0000e+00  2.0000e+00  2.0000e+00  2.0000e+00  2.0000e+00  2.0000e+00  2.0000e+00  2.0000e+00  2.0000e+00
  2.0000e+00  2.0000e+00  2.0000e+00  2.0000e+00  2.0000e+00  2.0000e+00  2.0000e+00  2.0000e+00  2.0000e+00  2.0000e+00
  2.0000e+00  2.0000e+00  2.0000e+00  2.0000e+00  2.0000e+00  2.0000e+00  2.0000e+00  2.0000e+00  2.0000e+00  2.0000e+00
  2.0000e+00  2.0000e+00  2.0000e+00  2.0000e+00  2.0000e+00  2.0000e+00  2.0000e+00  2.0000e+00  2.0000e+00  2.0000e+00
  2.0000e+00  2.0000e+00  2.0000e+00  2.0000e+00  2.0000e+00  2.0000e+00  2.0000e+00  2.0000e+00  2.0000e+00  2.0000e+00
  2.0000e+00  2.0000e+00  2.0000e+00  2.0000e+00  2.0000e+00  2.0000e+00  2.0000e+00  2.0000e+00  2.0000e+00  2.0000e+00
  2.0000e+00  2.0000e+00  2.0000e+00  2.0000e+00  2.0000e+00  2.0000e+00  2.0000e+00  2.0000e+00  2.0000e+00  2.0000e+00
  2.0000e+00  2.0000e+00  2.0000e+00  2.0000e+00  2.0000e+00  2.0000e+00  2.0000e+00  2.0000e+00  2.0000e+00  2.0000e+00
  2.0000e+00  2.0000e+00  2.0000e+00  2.0000e+00  2.0000e+00  2.0000e+00  2.0000e+00  2.0000e+00  2.0000e+00  2.0000e+00
        11     1.000(10e12.4)                   -1     VERTICAL HYDRAULIC CONDUCTIVITY Layer   3
  2.0000e+00  2.0000e+00  2.0000e+00  2.0000e+00  2.0000e+00  2.0000e+00  2.0000e+00  2.0000e+00  2.0000e+00  2.0000e+00
  2.0000e+00  2.0000e+00  2.0000e+00  2.0000e+00  2.0000e+00  2.0000e+00  2.0000e+00  2.0000e+00  2.0000e+00  2.0000e+00
  2.0000e+00  2.0000e+00  2.0000e+00  2.0000e+00  2.0000e+00  2.0000e+00  2.0000e+00  2.0000e+00  2.0000e+00  2.0000e+00
  2.0000e+00  2.0000e+00  2.0000e+00  2.0000e+00  2.0000e+00  2.0000e+00  2.0000e+00  2.0000e+00  2.0000e+00  2.0000e+00
  2.0000e+00  2.0000e+00  2.0000e+00  2.0000e+00  2.0000e+00  2.0000e+00  2.0000e+00  2.0000e+00  2.0000e+00  2.0000e+00
  2.0000e+00  2.0000e+00  2.0000e+00  2.0000e+00  2.0000e+00  2.0000e+00  2.0000e+00  2.0000e+00  2.0000e+00  2.0000e+00
  2.0000e+00  2.0000e+00  2.0000e+00  2.0000e+00  2.0000e+00  2.0000e+00  2.0000e+00  2.0000e+00  2.0000e+00  2.0000e+00
  2.0000e+00  2.0000e+00  2.0000e+00  2.0000e+00  2.0000e+00  2.0000e+00  2.0000e+00  2.0000e+00  2.0000e+00  2.0000e+00
  2.0000e+00  2.0000e+00  2.0000e+00  2.0000e+00  2.0000e+00  2.0000e+00  2.0000e+00  2.0000e+00  2.0000e+00  2.0000e+00
  2.0000e+00  2.0000e+00  2.0000e+00  2.0000e+00  2.0000e+00  2.0000e+00  2.0000e+00  2.0000e+00  2.0000e+00  2.0000e+00
  2.0000e+00  2.0000e+00  2.0000e+00  2.0000e+00  2.0000e+00  2.0000e+00  2.0000e+00  2.0000e+00  2.0000e+00  2.0000e+00
  2.0000e+00  2.0000e+00  2.0000e+00  2.0000e+00  2.0000e+00  2.0000e+00  2.0000e+00  2.0000e+00  2.0000e+00  2.0000e+00