# File generated by Flopy version 3.5.0.dev0 on 10/30/2023 at 09:10:24.
BEGIN options
  READASARRAYS
  PRINT_FLOWS
END options

BEGIN period  1
  irch
    INTERNAL  FACTOR  1
    2  1  1  1  1
    1  2  1  2  1
    1  2  1  2  1
    1  1  1  1  1
  recharge
    INTERNAL  FACTOR  1.0
         1.00000000       2.00000000       3.00000000       4.00000000       5.00000000
         6.00000000       7.00000000       8.00000000       9.00000000      10.00000000
        11.00000000      12.00000000      13.00000000      14.00000000      15.00000000
        16.00000000      17.00000000      18.00000000      19.00000000      20.00000000
END period  1

