# File generated by Flopy version 3.5.0.dev0 on 10/30/2023 at 09:10:24.
BEGIN options
  SAVE_FLOWS
END options

BEGIN griddata
  icelltype
    CONSTANT  0
  k
    CONSTANT       1.00000000
END griddata

