# File generated by Flopy version 3.5.0.dev0 on 10/30/2023 at 09:10:24.
BEGIN options
  SAVE_FLOWS
END options

BEGIN packages
  DIS6  rch.dis  dis
  IC6  rch.ic  ic
  NPF6  rch.npf  npf
  CHD6  rch.chd  chd_0
  RCH6  rch.rcha  rcha_0
  OC6  rch.oc  oc
END packages

