# File generated by Flopy version 3.5.0.dev0 on 10/30/2023 at 09:10:24.
BEGIN options
END options

BEGIN dimensions
  NLAY  2
  NROW  4
  NCOL  5
END dimensions

BEGIN griddata
  delr
    CONSTANT       1.00000000
  delc
    CONSTANT       1.00000000
  top
    CONSTANT     100.00000000
  botm  LAYERED
    CONSTANT      50.00000000
    CONSTANT       0.00000000
  idomain  LAYERED
    INTERNAL  FACTOR  1
      0  0  0  0  0
      0  -1  1  -1  0
      0  -1  1  -1  0
      0  0  0  0  0
    INTERNAL  FACTOR  1
      1  1  1  1  1
      1  1  1  -1  1
      1  1  1  1  1
      1  1  1  1  1
END griddata

