 LISTING FILE: P10.M3D
                         UNIT  16

 OPENING P10.BTN
 FILE TYPE:BTN   UNIT   1

 OPENING P10.ADV
 FILE TYPE:ADV   UNIT   2

 OPENING P10.DSP
 FILE TYPE:DSP   UNIT   3

 OPENING P10.SSM
 FILE TYPE:SSM   UNIT   4

 OPENING P10.RCT
 FILE TYPE:RCT   UNIT   8

 OPENING P10.GCG
 FILE TYPE:GCG   UNIT   9

 OPENING P10.FTL
 FILE TYPE:FTL   UNIT  10

                              +++++++++++++++++++++++++++++++++++++++++++++++++++++++++++++++++++++++
                              +                                                                     +
                              +                               MT3DMS                                +
                              +             A Modular 3D Multi-Species Transport Model              +
                              +    For Simulation of Advection, Dispersion and Chemical Reactions   +
                              +                of Contaminants in Groundwater Systems               +
                              +                                                                     +
                              +++++++++++++++++++++++++++++++++++++++++++++++++++++++++++++++++++++++

  ----- 
 | M T | MT3DMS Benchmark Test Problem #10                                               
 | 3 D | 3-D Flow and Transport                                                          
  ----- 
 THE TRANSPORT MODEL CONSISTS OF     4 LAYER(S)   61 ROW(S)   40 COLUMN(S)
 NUMBER OF STRESS PERIOD(S) FOR TRANSPORT SIMULATION =    1
 NUMBER OF ALL COMPONENTS INCLUDED IN SIMULATION =    1
 NUMBER OF MOBILE COMPONENTS INCLUDED IN SIMULATION =    1
 UNIT FOR TIME IS DAY ;  UNIT FOR LENGTH IS FT  ;  UNIT FOR MASS IS UNDF
 OPTIONAL PACKAGES INCLUDED IN CURRENT SIMULATION:
  o ADV   ON UNIT  2
  o DSP   ON UNIT  3
  o SSM   ON UNIT  4
  o RCT   ON UNIT  8
  o GCG   ON UNIT  9

 BTN5 -- BASIC TRANSPORT PACKAGE, VERSION 5, FEBRUARY 2010, INPUT READ FROM UNIT  1
     149042 ELEMENTS OF THE  X ARRAY USED BY THE BTN PACKAGE
       9764 ELEMENTS OF THE IX ARRAY USED BY THE BTN PACKAGE

 FMI5 -- FLOW MODEL INTERFACE PACKAGE, VERSION 5, FEBRUARY 2010, INPUT READ FROM UNIT 10
 FLOW MODEL IS STEADY-STATE
 FLOW MODEL CONTAINS CONSTANT-HEAD CELLS

 ADV5 -- ADVECTION PACKAGE, VERSION 5, FEBRUARY 2010, INPUT READ FROM UNIT  2
 ADVECTION IS SOLVED WITH THE HYBRID [MOC]/[MMOC] SCHEME
 COURANT NUMBER ALLOWED IN SOLVING THE ADVECTION TERM =  1.00    
 MAXIMUM NUMBER OF MOVING PARTICLES ALLOWED =  275000
    1375000 ELEMENTS OF THE  X ARRAY USED BY THE ADV PACKAGE
     834760 ELEMENTS OF THE IX ARRAY USED BY THE ADV PACKAGE

 DSP5 -- DISPERSION PACKAGE, VERSION 5, FEBRUARY 2010, INPUT READ FROM UNIT  3
     107368 ELEMENTS OF THE  X ARRAY USED BY THE DSP PACKAGE
          0 ELEMENTS OF THE IX ARRAY USED BY THE DSP PACKAGE

 SSM5 -- SINK & SOURCE MIXING PACKAGE, VERSION 5, FEBRUARY 2010, INPUT READ FROM UNIT  4
 HEADER LINE OF THE SSM PACKAGE INPUT FILE:
  T F T F F F                                          |FWEL,FDRN,FRCH,FEVT,FRIV,FGHB                                                                                                                    
 MAJOR STRESS COMPONENTS PRESENT IN THE FLOW MODEL:
  o WELL [WEL]
  o RECHARGE [RCH]
 MAXIMUM NUMBER OF POINT SINKS/SOURCES =    2000
      30880 ELEMENTS OF THE  X ARRAY USED BY THE SSM PACKAGE
       2440 ELEMENTS OF THE IX ARRAY BY THE SSM PACKAGE

 RCT5 -- CHEMICAL REACTION PACKAGE, VERSION 5, FEBRUARY 2010, INPUT READ FROM UNIT  8
 TYPE OF SORPTION SELECTED IS [LINEAR]
 NO FIRST-ORDER RATE REACTION IS SIMULATED
 REACTION COEFFICIENTS ASSIGNED CELL-BY-CELL
 INITIAL SORBED/IMMOBILE PHASE CONCENTRATION ASSIGNED BY DEFAULT
      29280 ELEMENTS OF THE  X ARRAY USED BY THE RCT PACKAGE
          0 ELEMENTS OF THE IX ARRAY USED BY THE RCT PACKAGE

 GCG5 -- GENERALIZED CONJUGATE GRADIENT SOLVER PACKAGE, VERSION 5, FEBRUARY 2010 INPUT READ FROM UNIT  9
 MAXIMUM OF    1 OUTER ITERATIONS
        AND  200 INNER ITERATIONS ALLOWED FOR CLOSURE
 THE PRECONDITIONING TYPE SELECTED IS MODIFIED INCOMPLETE CHOLESKY (MIC).
 DISPERSION CROSS TERMS LUMPED INTO RIGHT-HAND-SIDE
     214920 ELEMENTS OF THE  X ARRAY USED BY THE GCG PACKAGE
        600 ELEMENTS OF THE IX ARRAY USED BY THE GCG PACKAGE

 ..........................................
 ELEMENTS OF THE  X ARRAY USED =   1906491
 ELEMENTS OF THE IX ARRAY USED =    847565
 ..........................................

 LAYER NUMBER  AQUIFER TYPE
 ------------  ------------
       1            0
       2            0
       3            0
       4            0

                                   WIDTH ALONG ROWS (DELR)  READ ON UNIT  1 USING FREE FORMAT
                                   ----------------------------------------------------------

         1     2     3     4     5     6     7     8     9    10    11    12    13    14    15    16    17    18    19    20
        21    22    23    24    25    26    27    28    29    30    31    32    33    34    35    36    37    38    39    40
 ................................................................................................................................
   1  2000. 1600.  800.  400.  200.  100.   50.   50.   50.   50.   50.   50.   50.   50.   50.   50.   50.   50.   50.   50.
        50.   50.   50.   50.   50.   50.   50.   50.   50.   50.   50.   50.   50.   50.  100.  200.  400.  800. 1600. 2000.

                                   WIDTH ALONG COLS (DELC)  READ ON UNIT  1 USING FREE FORMAT
                                   ----------------------------------------------------------

         1     2     3     4     5     6     7     8     9    10    11    12    13    14    15    16    17    18    19    20
        21    22    23    24    25    26    27    28    29    30    31    32    33    34    35    36    37    38    39    40
        41    42    43    44    45    46    47    48    49    50    51    52    53    54    55    56    57    58    59    60
        61
 ................................................................................................................................
   1  2000. 2000. 2000. 1600.  800.  400.  200.  100.   50.   50.   50.   50.   50.   50.   50.   50.   50.   50.   50.   50.
        50.   50.   50.   50.   50.   50.   50.   50.   50.   50.   50.   50.   50.   50.   50.   50.   50.   50.   50.   50.
        50.   50.   50.   50.   50.   50.   50.   50.   50.   50.   50.   50.   50.  100.  200.  400.  800. 1600. 2000. 2000.
      2000.
                                       TOP ELEV. OF 1ST LAYER   =   780.0000    
                                       CELL THICKNESS (DZ)      =   25.00000     FOR LAYER  1
                                       CELL THICKNESS (DZ)      =   25.00000     FOR LAYER  2
                                       CELL THICKNESS (DZ)      =   25.00000     FOR LAYER  3
                                       CELL THICKNESS (DZ)      =   25.00000     FOR LAYER  4
                                       POROSITY                 =  0.3000000     FOR LAYER  1
                                       POROSITY                 =  0.3000000     FOR LAYER  2
                                       POROSITY                 =  0.3000000     FOR LAYER  3
                                       POROSITY                 =  0.3000000     FOR LAYER  4
                                       CONCN. BOUNDARY ARRAY    =              1 FOR LAYER  1
                                       CONCN. BOUNDARY ARRAY    =              1 FOR LAYER  2
                                       CONCN. BOUNDARY ARRAY    =              1 FOR LAYER  3
                                       CONCN. BOUNDARY ARRAY    =              1 FOR LAYER  4
                                       INITIAL CONC.: COMP.  01 =   0.000000     FOR LAYER  1

                     INITIAL CONC.: COMP.  01 FOR LAYER  2 READ ON UNIT  1 USING FORMAT: "(20F8.3)            "
                     ------------------------------------------------------------------------------------------

           1       2       3       4       5       6       7       8       9      10      11      12      13      14      15
          16      17      18      19      20      21      22      23      24      25      26      27      28      29      30
          31      32      33      34      35      36      37      38      39      40
 ................................................................................................................................
   1    0.000   0.000   0.000   0.000   0.000   0.000   0.000   0.000   0.000   0.000   0.000   0.000   0.000   0.000   0.000
        0.000   0.000   0.000   0.000   0.000   0.000   0.000   0.000   0.000   0.000   0.000   0.000   0.000   0.000   0.000
        0.000   0.000   0.000   0.000   0.000   0.000   0.000   0.000   0.000   0.000
   2    0.000   0.000   0.000   0.000   0.000   0.000   0.000   0.000   0.000   0.000   0.000   0.000   0.000   0.000   0.000
        0.000   0.000   0.000   0.000   0.000   0.000   0.000   0.000   0.000   0.000   0.000   0.000   0.000   0.000   0.000
        0.000   0.000   0.000   0.000   0.000   0.000   0.000   0.000   0.000   0.000
   3    0.000   0.000   0.000   0.000   0.000   0.000   0.000   0.000   0.000   0.000   0.000   0.000   0.000   0.000   0.000
        0.000   0.000   0.000   0.000   0.000   0.000   0.000   0.000   0.000   0.000   0.000   0.000   0.000   0.000   0.000
        0.000   0.000   0.000   0.000   0.000   0.000   0.000   0.000   0.000   0.000
   4    0.000   0.000   0.000   0.000   0.000   0.000   0.000   0.000   0.000   0.000   0.000   0.000   0.000   0.000   0.000
        0.000   0.000   0.000   0.000   0.000   0.000   0.000   0.000   0.000   0.000   0.000   0.000   0.000   0.000   0.000
        0.000   0.000   0.000   0.000   0.000   0.000   0.000   0.000   0.000   0.000
   5    0.000   0.000   0.000   0.000   0.000   0.000   0.000   0.000   0.000   0.000   0.000   0.000   0.000   0.000   0.000
        0.000   0.000   0.000   0.000   0.000   0.000   0.000   0.000   0.000   0.000   0.000   0.000   0.000   0.000   0.000
        0.000   0.000   0.000   0.000   0.000   0.000   0.000   0.000   0.000   0.000
   6    0.000   0.000   0.000   0.000   0.000   0.000   0.000   0.000   0.000   0.000   0.000   0.000   0.000   0.000   0.000
        0.000   0.000   0.000   0.000   0.000   0.000   0.000   0.000   0.000   0.000   0.000   0.000   0.000   0.000   0.000
        0.000   0.000   0.283   0.580   0.916   1.139   0.279   0.000   0.000   0.000
   7    0.000   0.000   0.000   0.000   0.000   0.000   0.000   0.000   0.013   0.427   0.831   1.235   1.671   2.215   2.866
        3.517   4.099   4.575   4.916   5.093   5.080   4.857   4.467   4.257   4.517   4.670   4.492   4.234   4.643   5.546
        6.336   6.868   7.143   7.197   6.951   5.709   2.330   0.000   0.000   0.000
   8    0.000   0.000   0.000   0.000   0.000   0.000   0.585   1.299   2.051   2.836   3.653   4.507   5.401   6.339   7.316
        8.318   9.328  10.329  11.308  12.255  13.167  14.047  14.897  15.702  16.414  16.952  17.245  17.269  17.050  16.627
       16.027  15.277  14.406  13.444  11.896   8.706   3.203   0.000   0.000   0.000
   9    0.000   0.000   0.000   0.000   0.000   0.118   1.325   2.212   3.148   4.123   5.137   6.191   7.287   8.428   9.614
       10.841  12.106  13.405  14.737  16.103  17.502  18.931  20.369  21.761  23.009  23.961  24.449  24.366  23.726  22.652
       21.300  19.799  18.234  16.659  14.343  10.059   3.466   0.000   0.000   0.000
  10    0.000   0.000   0.000   0.000   0.000   0.440   1.820   2.828   3.884   4.979   6.114   7.289   8.508   9.774  11.090
       12.459  13.882  15.363  16.909  18.526  20.220  21.990  23.818  25.644  27.344  28.695  29.399  29.223  28.195  26.574
       24.647  22.612  20.579  18.603  15.793  10.816   3.547   0.000   0.000   0.000
  11    0.000   0.000   0.000   0.000   0.000   0.750   2.326   3.453   4.621   5.826   7.068   8.351   9.678  11.056  12.488
       13.980  15.539  17.175  18.899  20.724  22.665  24.731  26.918  29.186  31.417  33.339  34.429  34.135  32.531  30.207
       27.643  25.075  22.602  20.261  17.012  11.415   3.540   0.000   0.000   0.000
  12    0.000   0.000   0.000   0.000   0.000   1.088   2.867   4.098   5.361   6.658   7.991   9.365  10.785  12.255  13.781
       15.372  17.037  18.789  20.642  22.617  24.734  27.015  29.477  32.120  34.894  37.595  39.480  39.000  36.413  33.224
       30.032  27.001  24.169  21.537  17.936  11.825   3.433   0.000   0.000   0.000
  13    0.000   0.000   0.000   0.000   0.000   1.593   3.471   4.769   6.102   7.471   8.877  10.324  11.816  13.356  14.953
       16.613  18.348  20.169  22.095  24.146  26.346  28.724  31.311  34.138  37.233  40.605  44.087  43.142  39.035  35.134
       31.532  28.219  25.169  22.355  18.520  12.026   3.220   0.000   0.000   0.000
  14    0.000   0.000   0.000   0.000   0.000   2.270   4.131   5.461   6.838   8.258   9.717  11.219  12.762  14.352  15.993
       17.691  19.455  21.298  23.234  25.281  27.461  29.798  32.317  35.039  37.969  41.036  43.670  42.876  39.309  35.538
       31.964  28.636  25.548  22.679  18.744  12.011   2.897   0.000   0.000   0.000
  15    0.000   0.000   0.000   0.000   0.268   2.961   4.809   6.151   7.555   9.008  10.505  12.043  13.620  15.237  16.897
       18.602  20.359  22.176  24.063  26.031  28.093  30.258  32.529  34.886  37.250  39.376  40.604  39.964  37.613  34.559
       31.380  28.280  25.324  22.525  18.618  11.785   2.463   0.000   0.000   0.000
  16    0.000   0.000   0.000   0.000   0.754   3.606   5.461   6.814   8.235   9.711  11.233  12.793  14.388  16.014  17.669
       19.355  21.071  22.821  24.609  26.436  28.302  30.199  32.104  33.961  35.651  36.934  37.425  36.779  35.064  32.689
       30.028  27.294  24.587  21.953  18.181  11.369   1.921   0.000   0.000   0.000
  17    0.000   0.000   0.000   0.000   1.196   4.185   6.063   7.428   8.865  10.358  11.896  13.469  15.069  16.688  18.322
       19.965  21.614  23.267  24.917  26.559  28.179  29.755  31.246  32.580  33.643  34.272  34.287  33.584  32.218  30.362
       28.199  25.870  23.469  21.056  17.492  10.797   1.284   0.000   0.000   0.000
  18    0.000   0.000   0.000   0.000   1.582   4.690   6.599   7.981   9.433  10.942  12.492  14.071  15.668  17.270  18.869
       20.456  22.020  23.553  25.043  26.476  27.830  29.071  30.150  30.995  31.512  31.605  31.226  30.425  29.292  27.857
       26.140  24.201  22.114  19.940  16.621  10.118   0.578   0.000   0.000   0.000
  19    0.000   0.000   0.000   0.000   1.902   5.115   7.060   8.462   9.934  11.458  13.020  14.603  16.193  17.774  19.332
       20.852  22.321  23.725  25.046  26.265  27.354  28.276  28.979  29.396  29.450  29.075  28.287  27.315  26.411  25.378
       24.055  22.459  20.655  18.711  15.644   9.387   0.000   0.000   0.000   0.000
  20    0.000   0.000   0.000   0.000   2.151   5.457   7.441   8.868  10.361  11.905  13.481  15.071  16.655  18.214  19.730
       21.182  22.555  23.828  24.982  25.994  26.837  27.472  27.854  27.924  27.617  26.869  25.648  24.258  23.793  23.144
       22.120  20.783  19.206  17.456  14.625   8.661   0.000   0.000   0.000   0.000
  21    0.000   0.000   0.000   0.000   2.325   5.712   7.738   9.193  10.714  12.283  13.879  15.481  17.065  18.607  20.085
       21.474  22.753  23.902  24.898  25.720  26.342  26.733  26.856  26.668  26.125  25.191  23.869  22.507  21.970  21.373
       20.463  19.268  17.843  16.242  13.615   7.977   0.000   0.000   0.000   0.000
  22    0.000   0.000   0.000   0.000   2.419   5.876   7.947   9.435  10.990  12.592  14.217  15.840  17.433  18.968  20.417
       21.752  22.947  23.981  24.833  25.483  25.912  26.099  26.020  25.654  24.985  24.024  22.859  21.739  20.873  20.064
       19.107  17.950  16.605  15.106  12.645   7.349   0.000   0.000   0.000   0.000
  23    0.000   0.000   0.000   0.000   2.430   5.944   8.063   9.590  11.186  12.831  14.496  16.154  17.770  19.312  20.745
       22.038  23.163  24.094  24.815  25.311  25.571  25.585  25.347  24.853  24.113  23.162  22.086  21.011  20.011  19.035
       17.985  16.809  15.496  14.060  11.729   6.767   0.000   0.000   0.000   0.000
  24    0.000   0.000   0.000   0.000   2.357   5.913   8.083   9.653  11.300  12.999  14.719  16.426  18.083  19.649  21.086
       22.354  23.421  24.263  24.864  25.218  25.324  25.187  24.813  24.215  23.416  22.456  21.399  20.311  19.232  18.147
       17.015  15.802  14.495  13.097  10.869   6.215   0.000   0.000   0.000   0.000
  25    0.000   0.000   0.000   0.000   2.196   5.776   7.998   9.620  11.328  13.093  14.883  16.659  18.377  19.991  21.453
       22.716  23.741  24.503  24.991  25.207  25.166  24.885  24.385  23.687  22.823  21.830  20.751  19.630  18.490  17.332
       16.137  14.888  13.576  12.203  10.054   5.675   0.000   0.000   0.000   0.000
  26    0.000   0.000   0.000   0.000   1.948   5.526   7.804   9.483  11.262  13.109  14.986  16.850  18.653  20.341  21.855
       23.137  24.138  24.827  25.200  25.276  25.083  24.656  24.026  23.226  22.286  21.240  20.120  18.956  17.765  16.552
       15.310  14.032  12.714  11.358   9.273   5.133   0.000   0.000   0.000   0.000
  27    0.000   0.000   0.000   0.000   1.615   5.158   7.492   9.236  11.097  13.039  15.018  16.990  18.903  20.695  22.296
       23.629  24.624  25.243  25.491  25.408  25.049  24.466  23.701  22.791  21.767  20.657  19.486  18.277  17.042  15.786
       14.510  13.211  11.888  10.545   8.513   4.580   0.000   0.000   0.000   0.000
  28    0.000   0.000   0.000   0.000   1.201   4.664   7.055   8.873  10.827  12.875  14.970  17.066  19.111  21.040  22.770
       24.196  25.211  25.754  25.850  25.578  25.030  24.277  23.370  22.347  21.234  20.056  18.833  17.580  16.307  15.020
       13.720  12.406  11.081   9.750   7.762   4.007   0.000   0.000   0.000   0.000
  29    0.000   0.000   0.000   0.000   0.718   4.038   6.488   8.391  10.451  12.612  14.827  17.053  19.244  21.339  23.249
       24.833  25.908  26.357  26.244  25.734  24.971  24.039  22.991  21.856  20.659  19.416  18.144  16.854  15.552  14.243
       12.927  11.607  10.284   8.964   7.012   3.411   0.000   0.000   0.000   0.000
  30    0.000   0.000   0.000   0.000   0.190   3.273   5.793   7.800   9.976  12.251  14.579  16.923  19.251  21.519  23.656
       25.501  26.726  27.023  26.592  25.789  24.797  23.695  22.517  21.285  20.014  18.717  17.405  16.087  14.766  13.447
       12.127  10.808   9.491   8.182   6.259   2.786   0.000   0.000   0.000   0.000
  31    0.000   0.000   0.000   0.000   0.000   2.368   4.988   7.132   9.430  11.807  14.221  16.647  19.069  21.468  23.816
       26.031  27.666  27.612  26.702  25.599  24.416  23.182  21.908  20.605  19.280  17.943  16.604  15.271  13.946  12.628
       11.315  10.006   8.701   7.406   5.504   2.133   0.000   0.000   0.000   0.000
  32    0.000   0.000   0.000   0.000   0.000   1.320   4.141   6.459   8.867  11.308  13.760  16.209  18.646  21.066  23.459
       25.815  27.981  27.408  26.233  25.008  23.748  22.455  21.136  19.796  18.443  17.085  15.734  14.401  13.087  11.787
       10.494   9.206   7.920   6.642   4.757   1.450   0.000   0.000   0.000   0.000
  33    0.000   0.000   0.000   0.000   0.000   0.151   3.467   5.912   8.357  10.796  13.218  15.617  17.978  20.282  22.486
       24.462  25.782  25.830  25.045  23.968  22.769  21.503  20.194  18.857  17.501  16.140  14.791  13.475  12.193  10.927
        9.669   8.412   7.158   5.905   4.042   0.739   0.000   0.000   0.000   0.000
  34    0.000   0.000   0.000   0.000   0.000   0.383   3.281   5.602   7.955  10.304  12.628  14.907  17.117  19.217  21.129
       22.703  23.686  23.887  23.434  22.590  21.532  20.353  19.099  17.798  16.468  15.122  13.780  12.498  11.273  10.058
        8.846   7.634   6.422   5.210   3.393   0.025   0.000   0.000   0.000   0.000
  35    0.000   0.000   0.000   0.000   0.000   0.957   3.440   5.496   7.658   9.847  12.015  14.128  16.145  18.012  19.648
       20.934  21.734  21.970  21.694  21.038  20.129  19.059  17.885  16.645  15.364  14.060  12.744  11.512  10.351   9.192
        8.034   6.877   5.721   4.566   2.841   0.000   0.000   0.000   0.000   0.000
  36    0.000   0.000   0.000   0.000   0.000   1.411   3.655   5.474   7.423   9.418  11.401  13.323  15.135  16.779  18.181
       19.256  19.927  20.154  19.965  19.432  18.644  17.677  16.589  15.423  14.210  12.977  11.750  10.571   9.442   8.334
        7.235   6.142   5.055   3.974   2.379   0.000   0.000   0.000   0.000   0.000
  37    0.000   0.000   0.000   0.000   0.000   1.752   3.821   5.452   7.203   9.004  10.796  12.525  14.139  15.581  16.788
       17.699  18.264  18.460  18.304  17.843  17.139  16.255  15.244  14.153  13.015  11.861  10.717   9.605   8.530   7.481
        6.448   5.428   4.419   3.424   1.973   0.000   0.000   0.000   0.000   0.000
  38    0.000   0.000   0.000   0.000   0.000   1.991   3.914   5.392   6.970   8.592  10.204  11.753  13.187  14.453  15.498
       16.273  16.743  16.894  16.737  16.307  15.652  14.825  13.876  12.850  11.784  10.707   9.643   8.607   7.602   6.625
        5.670   4.731   3.808   2.903   1.596   0.000   0.000   0.000   0.000   0.000
  39    0.000   0.000   0.000   0.000   0.000   2.137   3.931   5.281   6.712   8.177   9.629  11.018  12.295  13.411  14.319
       14.979  15.362  15.458  15.276  14.845  14.207  13.410  12.501  11.526  10.521   9.517   8.533   7.579   6.658   5.766
        4.897   4.047   3.214   2.401   1.232   0.000   0.000   0.000   0.000   0.000
  40    0.000   0.000   0.000   0.000   0.000   2.200   3.878   5.119   6.425   7.756   9.069  10.322  11.467  12.459  13.255
       13.817  14.120  14.153  13.926  13.467  12.816  12.020  11.128  10.186   9.232   8.295   7.392   6.528   5.701   4.905
        4.132   3.376   2.637   1.914   0.876   0.000   0.000   0.000   0.000   0.000
  41    0.000   0.000   0.000   0.000   0.000   2.188   3.760   4.909   6.109   7.327   8.525   9.665  10.704  11.598  12.305
       12.787  13.015  12.980  12.691  12.178  11.485  10.662   9.762   8.833   7.918   7.044   6.226   5.461   4.739   4.049
        3.379   2.722   2.077   1.444   0.528   0.000   0.000   0.000   0.000   0.000
  42    0.000   0.000   0.000   0.000   0.000   2.110   3.585   4.654   5.764   6.888   7.993   9.043  10.000  10.822  11.465
       11.887  12.051  11.942  11.573  10.979  10.215   9.337   8.402   7.466   6.576   5.765   5.040   4.387   3.783   3.208
        2.647   2.092   1.540   0.993   0.192   0.000   0.000   0.000   0.000   0.000
  43    0.000   0.000   0.000   0.000   0.000   1.970   3.358   4.357   5.392   6.437   7.465   8.445   9.343  10.119  10.727
       11.114  11.229  11.042  10.571   9.869   9.005   8.044   7.049   6.082   5.204   4.457   3.842   3.322   2.852   2.401
        1.952   1.497   1.035   0.569   0.000   0.000   0.000   0.000   0.000   0.000
  44    0.000   0.000   0.000   0.000   0.000   1.776   3.085   4.024   4.993   5.971   6.935   7.859   8.715   9.469  10.074
       10.463  10.554  10.285   9.682   8.837   7.847   6.785   5.710   4.684   3.796   3.123   2.652   2.293   1.972   1.650
        1.311   0.951   0.572   0.179   0.000   0.000   0.000   0.000   0.000   0.000
  45    0.000   0.000   0.000   0.000   0.000   1.533   2.772   3.658   4.568   5.485   6.391   7.266   8.089   8.836   9.467
        9.912  10.030   9.669   8.879   7.852   6.725   5.565   4.409   3.299   2.352   1.776   1.516   1.352   1.185   0.986
        0.746   0.469   0.161   0.000   0.000   0.000   0.000   0.000   0.000   0.000
  46    0.000   0.000   0.000   0.000   0.000   1.249   2.431   3.267   4.121   4.978   5.824   6.647   7.432   8.166   8.829
        9.382   9.654   9.164   8.080   6.851   5.610   4.395   3.209   2.039   0.918   0.502   0.554   0.578   0.540   0.438
        0.276   0.064   0.000   0.000   0.000   0.000   0.000   0.000   0.000   0.000
  47    0.000   0.000   0.000   0.000   0.000   0.941   2.077   2.863   3.657   4.449   5.230   5.989   6.715   7.402   8.042
        8.632   9.176   8.468   7.088   5.738   4.460   3.278   2.178   1.128   0.174   0.000   0.000   0.047   0.075   0.028
        0.000   0.000   0.000   0.000   0.000   0.000   0.000   0.000   0.000   0.000
  48    0.000   0.000   0.000   0.000   0.000   0.666   1.733   2.457   3.183   3.904   4.610   5.289   5.932   6.524   7.045
        7.450   7.564   6.949   5.763   4.461   3.245   2.201   1.313   0.545   0.000   0.000   0.000   0.000   0.000   0.000
        0.000   0.000   0.000   0.000   0.000   0.000   0.000   0.000   0.000   0.000
  49    0.000   0.000   0.000   0.000   0.000   0.470   1.410   2.058   2.708   3.350   3.973   4.562   5.103   5.571   5.928
        6.102   5.954   5.339   4.309   3.090   1.962   1.153   0.570   0.105   0.000   0.000   0.000   0.000   0.000   0.000
        0.000   0.000   0.000   0.000   0.000   0.000   0.000   0.000   0.000   0.000
  50    0.000   0.000   0.000   0.000   0.000   0.295   1.104   1.670   2.238   2.798   3.334   3.831   4.267   4.612   4.824
        4.837   4.567   3.950   3.002   1.812   0.632   0.216   0.000   0.000   0.000   0.000   0.000   0.000   0.000   0.000
        0.000   0.000   0.000   0.000   0.000   0.000   0.000   0.000   0.000   0.000
  51    0.000   0.000   0.000   0.000   0.000   0.117   0.807   1.291   1.779   2.258   2.712   3.121   3.462   3.706   3.814
        3.738   3.427   2.851   2.021   0.996   0.019   0.000   0.000   0.000   0.000   0.000   0.000   0.000   0.000   0.000
        0.000   0.000   0.000   0.000   0.000   0.000   0.000   0.000   0.000   0.000
  52    0.000   0.000   0.000   0.000   0.000   0.000   0.518   0.925   1.336   1.741   2.120   2.454   2.718   2.888   2.933
        2.821   2.524   2.032   1.372   0.630   0.000   0.000   0.000   0.000   0.000   0.000   0.000   0.000   0.000   0.000
        0.000   0.000   0.000   0.000   0.000   0.000   0.000   0.000   0.000   0.000
  53    0.000   0.000   0.000   0.000   0.000   0.000   0.241   0.574   0.915   1.255   1.573   1.845   2.051   2.171   2.185
        2.073   1.822   1.435   0.943   0.417   0.000   0.000   0.000   0.000   0.000   0.000   0.000   0.000   0.000   0.000
        0.000   0.000   0.000   0.000   0.000   0.000   0.000   0.000   0.000   0.000
  54    0.000   0.000   0.000   0.000   0.000   0.000   0.000   0.092   0.336   0.614   0.865   1.066   1.207   1.283   1.288
        1.214   1.055   0.817   0.523   0.210   0.000   0.000   0.000   0.000   0.000   0.000   0.000   0.000   0.000   0.000
        0.000   0.000   0.000   0.000   0.000   0.000   0.000   0.000   0.000   0.000
  55    0.000   0.000   0.000   0.000   0.000   0.000   0.000   0.000   0.000   0.000   0.000   0.073   0.095   0.069   0.138
        0.184   0.181   0.137   0.068   0.000   0.000   0.000   0.000   0.000   0.000   0.000   0.000   0.000   0.000   0.000
        0.000   0.000   0.000   0.000   0.000   0.000   0.000   0.000   0.000   0.000
  56    0.000   0.000   0.000   0.000   0.000   0.000   0.000   0.000   0.000   0.000   0.000   0.000   0.000   0.000   0.000
        0.000   0.000   0.000   0.000   0.000   0.000   0.000   0.000   0.000   0.000   0.000   0.000   0.000   0.000   0.000
        0.000   0.000   0.000   0.000   0.000   0.000   0.000   0.000   0.000   0.000
  57    0.000   0.000   0.000   0.000   0.000   0.000   0.000   0.000   0.000   0.000   0.000   0.000   0.000   0.000   0.000
        0.000   0.000   0.000   0.000   0.000   0.000   0.000   0.000   0.000   0.000   0.000   0.000   0.000   0.000   0.000
        0.000   0.000   0.000   0.000   0.000   0.000   0.000   0.000   0.000   0.000
  58    0.000   0.000   0.000   0.000   0.000   0.000   0.000   0.000   0.000   0.000   0.000   0.000   0.000   0.000   0.000
        0.000   0.000   0.000   0.000   0.000   0.000   0.000   0.000   0.000   0.000   0.000   0.000   0.000   0.000   0.000
        0.000   0.000   0.000   0.000   0.000   0.000   0.000   0.000   0.000   0.000
  59    0.000   0.000   0.000   0.000   0.000   0.000   0.000   0.000   0.000   0.000   0.000   0.000   0.000   0.000   0.000
        0.000   0.000   0.000   0.000   0.000   0.000   0.000   0.000   0.000   0.000   0.000   0.000   0.000   0.000   0.000
        0.000   0.000   0.000   0.000   0.000   0.000   0.000   0.000   0.000   0.000
  60    0.000   0.000   0.000   0.000   0.000   0.000   0.000   0.000   0.000   0.000   0.000   0.000   0.000   0.000   0.000
        0.000   0.000   0.000   0.000   0.000   0.000   0.000   0.000   0.000   0.000   0.000   0.000   0.000   0.000   0.000
        0.000   0.000   0.000   0.000   0.000   0.000   0.000   0.000   0.000   0.000
  61    0.000   0.000   0.000   0.000   0.000   0.000   0.000   0.000   0.000   0.000   0.000   0.000   0.000   0.000   0.000
        0.000   0.000   0.000   0.000   0.000   0.000   0.000   0.000   0.000   0.000   0.000   0.000   0.000   0.000   0.000
        0.000   0.000   0.000   0.000   0.000   0.000   0.000   0.000   0.000   0.000

                     INITIAL CONC.: COMP.  01 FOR LAYER  3 READ ON UNIT  1 USING FORMAT: "(20F8.3)            "
                     ------------------------------------------------------------------------------------------

           1       2       3       4       5       6       7       8       9      10      11      12      13      14      15
          16      17      18      19      20      21      22      23      24      25      26      27      28      29      30
          31      32      33      34      35      36      37      38      39      40