MT3DMS Benchmark Test Problem #10
3-D Flow and Transport
         4        61        40         1         1         1   |NLAY,NROW,NCOL,NPER,NCOMP,MCOMP
DAY FT  UNDF                                            |LUNIT,TUNIT,MUNIT,...
T T T T T F F F F F                                     |ADV,DSP,SSM,RCT,GCG
 0 0 0 0 0 0                                            |LAYCON
       103        0.                             7      |ARRAY CONTROL-RECORD FOR DELR
2000.00 1600.00  800.00  400.00  200.00  100.00   
28*50
100.00  200.00  400.00  800.00  1600.0 2000.00          |DELR ENTERED IN FREE FORM
       103        0.                             7      |ARRAY CONTROL-RECORD FOR DELC
2000.00 2000.00 2000.00 1600.00  800.00  
400.00  200.00 100.00 45*50 100.00  200.00  
400.00  800.00 1600.00 2000.00 2000.00 2000.00          |DELC ENTERED IN FREE FORM
         0      780.                                    |HTOP, ENTERED AS A UNIFORM VALUE
         0     25.00                                    |DZ-LAYER1, ENTERED AS A UNIFORM VALUE
         0     25.00                                    |DZ-LAYER2
         0     25.00                                    |DZ-LAYER3
         0     25.00                                    |DZ-LAYER4
         0       .30                                    |POROSITY-LAYER1
         0       .30                                    |POROSITY-LAYER2
         0       .30                                    |POROSITY-LAYER3
         0       .30                                    |POROSITY-LAYER4
         0         1                                    |ICBUND-LAYER1
         0         1                                    |ICBUND-LAYER2
         0         1                                    |ICBUND-LAYER3
         0         1                                    |ICBUND-LAYER4
         0        0.                                    |SCONC-LAYER1
       100       0.2(20F8.3)                     5      |SCONC-LAYER2 (MULTIPLIER=0.2)
    .000    .000    .000    .000    .000    .000    .000    .000    .000    .000    .000    .000    .000    .000    .000    .000    .000    .000    .000    .000
    .000    .000    .000    .000    .000    .000    .000    .000    .000    .000    .000    .000    .000    .000    .000    .000    .000    .000    .000    .000
    .000    .000    .000    .000    .000    .000    .000    .000    .000    .000    .000    .000    .000    .000    .000    .000    .000    .000    .000    .000
    .000    .000    .000    .000    .000    .000    .000    .000    .000    .000    .000    .000    .000    .000    .000    .000    .000    .000    .000    .000
    .000    .000    .000    .000    .000    .000    .000    .000    .000    .000    .000    .000    .000    .000    .000    .000    .000    .000    .000    .000
    .000    .000    .000    .000    .000    .000    .000    .000    .000    .000    .000    .000    .000    .000    .000    .000    .000    .000    .000    .000
    .000    .000    .000    .000    .000    .000    .000    .000    .000    .000    .000    .000    .000    .000    .000    .000    .000    .000    .000    .000
    .000    .000    .000    .000    .000    .000    .000    .000    .000    .000    .000    .000    .000    .000    .000    .000    .000    .000    .000    .000
    .000    .000    .000    .000    .000    .000    .000    .000    .000    .000    .000    .000    .000    .000    .000    .000    .000    .000    .000    .000
    .000    .000    .000    .000    .000    .000    .000    .000    .000    .000    .000    .000    .000    .000    .000    .000    .000    .000    .000    .000
    .000    .000    .000    .000    .000    .000    .000    .000    .000    .000    .000    .000    .000    .000    .000    .000    .000    .000    .000    .000
    .000    .000    .000    .000    .000    .000    .000    .000    .000    .000    .000    .000   1.417   2.899   4.578   5.697   1.397    .000    .000    .000
    .000    .000    .000    .000    .000    .000    .000    .000    .067   2.133   4.157   6.173   8.354  11.073  14.330  17.585  20.496  22.875  24.580  25.467
  25.399  24.283  22.334  21.284  22.586  23.349  22.459  21.169  23.215  27.730  31.682  34.340  35.717  35.986  34.754  28.544  11.648    .000    .000    .000
    .000    .000    .000    .000    .000    .000   2.923   6.493  10.255  14.181  18.267  22.533  27.005  31.696  36.581  41.592  46.641  51.645  56.538  61.274
  65.837  70.236  74.484  78.512  82.072  84.761  86.223  86.344  85.252  83.133  80.135  76.386  72.029  67.221  59.481  43.530  16.016    .000    .000    .000
    .000    .000    .000    .000    .000    .590   6.625  11.062  15.738  20.616  25.686  30.954  36.436  42.141  48.069  54.205  60.528  67.024  73.685  80.513
  87.512  94.657 101.843 108.807 115.045 119.803 122.245 121.830 118.630 113.261 106.501  98.993  91.170  83.296  71.715  50.294  17.331    .000    .000    .000
    .000    .000    .000    .000    .000   2.202   9.100  14.141  19.419  24.896  30.568  36.443  42.538  48.870  55.451  62.294  69.410  76.817  84.544  92.628
 101.098 109.952 119.089 128.221 136.718 143.475 146.995 146.115 140.974 132.871 123.236 113.062 102.896  93.014  78.967  54.081  17.737    .000    .000    .000
    .000    .000    .000    .000    .000   3.749  11.628  17.266  23.105  29.128  35.338  41.753  48.391  55.278  62.438  69.899  77.696  85.875  94.493 103.620
 113.326 123.657 134.592 145.928 157.087 166.697 172.144 170.676 162.653 151.036 138.214 125.374 113.011 101.307  85.062  57.074  17.698    .000    .000    .000
    .000    .000    .000    .000    .000   5.438  14.333  20.489  26.804  33.289  39.957  46.827  53.923  61.273  68.906  76.861  85.187  93.944 103.212 113.085
 123.670 135.076 147.387 160.599 174.469 187.974 197.398 195.001 182.066 166.119 150.159 135.003 120.845 107.685  89.681  59.125  17.165    .000    .000    .000
    .000    .000    .000    .000    .000   7.966  17.353  23.846  30.511  37.354  44.385  51.620  59.078  66.782  74.765  83.067  91.738 100.846 110.475 120.728
 131.730 143.621 156.557 170.692 186.166 203.026 220.434 215.709 195.174 175.669 157.661 141.096 125.847 111.774  92.600  60.132  16.101    .000    .000    .000
    .000    .000    .000    .000    .000  11.350  20.657  27.305  34.191  41.288  48.587  56.093  63.811  71.760  79.963  88.453  97.276 106.490 116.170 126.407
 137.307 148.992 161.585 175.195 189.844 205.182 218.348 214.380 196.543 177.692 159.818 143.178 127.738 113.397  93.720  60.057  14.484    .000    .000    .000
    .000    .000    .000    .000   1.338  14.806  24.043  30.755  37.773  45.040  52.525  60.214  68.100  76.186  84.483  93.009 101.795 110.880 120.315 130.157
 140.466 151.292 162.647 174.431 186.252 196.881 203.018 199.822 188.063 172.795 156.899 141.400 126.619 112.627  93.092  58.926  12.313    .000    .000    .000
    .000    .000    .000    .000   3.768  18.029  27.305  34.068  41.175  48.556  56.165  63.967  71.940  80.069  88.346  96.773 105.355 114.107 123.044 132.179
 141.508 150.994 160.519 169.807 178.255 184.669 187.124 183.897 175.320 163.445 150.142 136.470 122.936 109.766  90.905  56.844   9.605    .000    .000    .000
    .000    .000    .000    .000   5.981  20.924  30.313  37.141  44.324  51.791  59.481  67.346  75.343  83.441  91.608  99.826 108.072 116.333 124.585 132.794
 140.896 148.776 156.229 162.898 168.214 171.360 171.434 167.918 161.091 151.812 140.997 129.351 117.345 105.280  87.458  53.985   6.420    .000    .000    .000
    .000    .000    .000    .000   7.909  23.449  32.993  39.903  47.167  54.708  62.459  70.356  78.338  86.351  94.347 102.278 110.099 117.763 125.216 132.382
 139.151 145.357 150.752 154.974 157.559 158.025 156.129 152.124 146.462 139.286 130.702 121.007 110.568  99.701  83.107  50.588   2.892    .000    .000    .000
    .000    .000    .000    .000   9.510  25.576  35.300  42.312  49.668  57.290  65.098  73.016  80.965  88.870  96.659 104.261 111.607 118.624 125.232 131.326
 136.772 141.380 144.895 146.980 147.249 145.377 141.435 136.576 132.056 126.889 120.275 112.294 103.275  93.553  78.221  46.936    .000    .000    .000    .000
    .000    .000    .000    .000  10.756  27.286  37.206  44.339  51.806  59.526  67.406  75.355  83.276  91.072  98.648 105.912 112.773 119.139 124.910 129.972
 134.183 137.361 139.270 139.620 138.083 134.343 128.238 121.292 118.964 115.721 110.601 103.913  96.028  87.280  73.126  43.304    .000    .000    .000    .000
    .000    .000    .000    .000  11.623  28.560  38.691  45.966  53.570  61.415  69.397  77.405  85.325  93.036 100.423 107.369 113.766 119.508 124.490 128.600
 131.708 133.663 134.278 133.340 130.627 125.954 119.343 112.533 109.851 106.866 102.316  96.342  89.215  81.210  68.073  39.885    .000    .000    .000    .000
    .000    .000    .000    .000  12.094  29.379  39.735  47.175  54.949  62.958  71.084  79.199  87.166  94.841 102.084 108.758 114.736 119.906 124.165 127.416
 129.561 130.495 130.102 128.269 124.923 120.119 114.296 108.697 104.366 100.319  95.534  89.750  83.027  75.529  63.223  36.743    .000    .000    .000    .000
    .000    .000    .000    .000  12.151  29.722  40.317  47.949  55.932  64.154  72.482  80.768  88.850  96.558 103.726 110.192 115.813 120.472 124.076 126.555
 127.854 127.927 126.737 124.267 120.564 115.812 110.432 105.053 100.057  95.174  89.925  84.043  77.478  70.299  58.645  33.836    .000    .000    .000    .000
    .000    .000    .000    .000  11.783  29.564  40.413  48.266  56.502  64.995  73.595  82.131  90.414  98.247 105.430 111.771 117.106 121.314 124.319 126.088
 126.620 125.934 124.065 121.075 117.080 112.282 106.993 101.555  96.160  90.737  85.077  79.010  72.473  65.486  54.343  31.075    .000    .000    .000    .000
    .000    .000    .000    .000  10.981  28.878  39.992  48.099  56.638  65.467  74.417  83.295  91.885  99.955 107.263 113.579 118.706 122.516 124.953 126.037
 125.832 124.426 121.923 118.437 114.116 109.148 103.756  98.150  92.452  86.659  80.685  74.439  67.879  61.014  50.270  28.376    .000    .000    .000    .000
    .000    .000    .000    .000   9.742  27.631  39.020  47.415  56.311  65.545  74.929  84.248  93.263 101.703 109.274 115.685 120.689 124.135 126.002 126.378
 125.414 123.278 120.131 116.130 111.430 106.198 100.600  94.780  88.827  82.760  76.552  70.162  63.569  56.788  46.367  25.667    .000    .000    .000    .000
    .000    .000    .000    .000   8.074  25.790  37.459  46.180  55.486  65.193  75.090  84.951  94.514 103.477 111.481 118.144 123.119 126.214 127.454 127.041
 125.247 122.329 118.506 113.956 108.835 103.284  97.432  91.385  85.209  78.932  72.551  66.054  59.439  52.723  42.566  22.900    .000    .000    .000    .000
    .000    .000    .000    .000   6.004  23.320  35.273  44.363  54.136  64.373  74.848  85.328  95.553 105.201 113.852 120.980 126.053 128.772 129.248 127.889
 125.149 121.384 116.852 111.733 106.171 100.282  94.166  87.901  81.537  75.101  68.598  62.031  55.406  48.750  38.811  20.037    .000    .000    .000    .000
    .000    .000    .000    .000   3.592  20.188  32.438  41.956  52.253  63.059  74.136  85.266  96.218 106.694 116.245 124.166 129.542 131.787 131.218 128.672
 124.854 120.197 114.953 109.280 103.293  97.082  90.721  84.268  77.759  71.213  64.637  58.035  51.420  44.819  35.061  17.053    .000    .000    .000    .000
    .000    .000    .000    .000    .949  16.366  28.963  39.002  49.880  61.257  72.897  84.617  96.254 107.596 118.278 127.507 133.629 135.117 132.962 128.944
 123.986 118.473 112.584 106.425 100.071  93.586  87.025  80.433  73.832  67.233  60.634  54.038  47.453  40.911  31.294  13.932    .000    .000    .000    .000
    .000    .000    .000    .000    .000  11.838  24.938  35.658  47.152  59.035  71.104  83.237  95.345 107.340 119.080 130.157 138.328 138.062 133.510 127.996
 122.082 115.910 109.542 103.024  96.399  89.715  83.021  76.354  69.729  63.141  56.577  50.031  43.506  37.029  27.520  10.664    .000    .000    .000    .000
    .000    .000    .000    .000    .000   6.599  20.705  32.294  44.335  56.542  68.798  81.043  93.232 105.328 117.296 129.077 139.903 137.039 131.165 125.042
 118.738 112.277 105.682  98.982  92.213  85.423  78.669  72.004  65.435  58.935  52.471  46.028  39.602  33.212  23.786   7.248    .000    .000    .000    .000
    .000    .000    .000    .000    .000    .753  17.335  29.558  41.787  53.979  66.092  78.084  89.891 101.412 112.428 122.308 128.910 129.150 125.223 119.838
 113.844 107.516 100.972  94.284  87.507  80.702  73.956  67.375  60.963  54.637  48.344  42.062  35.788  29.526  20.209   3.694    .000    .000    .000    .000
    .000    .000    .000    .000    .000   1.917  16.407  28.008  39.776  51.519  63.138  74.537  85.587  96.085 105.646 113.516 118.431 119.437 117.168 112.948
 107.662 101.767  95.497  88.992  82.340  75.610  68.899  62.490  56.363  50.291  44.230  38.171  32.110  26.049  16.967    .123    .000    .000    .000    .000
    .000    .000    .000    .000    .000   4.784  17.201  27.478  38.292  49.234  60.077  70.641  80.727  90.062  98.240 104.670 108.668 109.851 108.469 105.188
 100.647  95.295  89.425  83.226  76.822  70.299  63.720  57.561  51.756  45.959  40.169  34.383  28.604  22.831  14.207    .000    .000    .000    .000    .000
    .000    .000    .000    .000    .000   7.053  18.275  27.371  37.114  47.090  57.005  66.617  75.677  83.893  90.903  96.280  99.633 100.771  99.823  97.161
  93.222  88.386  82.945  77.115  71.052  64.883  58.748  52.855  47.211  41.670  36.175  30.710  25.274  19.872  11.896    .000    .000    .000    .000    .000
    .000    .000    .000    .000    .000   8.760  19.107  27.261  36.013  45.018  53.978  62.627  70.697  77.905  83.942  88.496  91.318  92.299  91.519  89.214
  85.695  81.274  76.222  70.764  65.076  59.306  53.587  48.027  42.649  37.403  32.241  27.141  22.097  17.120   9.867    .000    .000    .000    .000    .000
    .000    .000    .000    .000    .000   9.954  19.570  26.960  34.849  42.961  51.021  58.767  65.937  72.266  77.489  81.364  83.714  84.469  83.685  81.536
  78.262  74.126  69.382  64.251  58.919  53.535  48.215  43.033  38.011  33.127  28.349  23.655  19.039  14.513   7.981    .000    .000    .000    .000    .000
    .000    .000    .000    .000    .000  10.685  19.656  26.407  33.560  40.885  48.143  55.088  61.473  67.054  71.595  74.894  76.810  77.289  76.380  74.226
  71.035  67.048  62.505  57.629  52.607  47.584  42.663  37.895  33.290  28.830  24.486  20.236  16.071  12.004   6.160    .000    .000    .000    .000    .000
    .000    .000    .000    .000    .000  11.000  19.389  25.597  32.125  38.779  45.347  51.609  57.335  62.296  66.276  69.087  70.599  70.764  69.631  67.336
  64.080  60.100  55.641  50.930  46.160  41.475  36.959  32.640  28.507  24.525  20.659  16.882  13.183   9.572   4.380    .000    .000    .000    .000    .000
    .000    .000    .000    .000    .000  10.942  18.801  24.545  30.544  36.633  42.627  48.326  53.519  57.990  61.526  63.934  65.077  64.901  63.455  60.890
  57.423  53.309  48.808  44.165  39.588  35.220  31.128  27.304  23.697  20.244  16.893  13.611  10.384   7.220   2.642    .000    .000    .000    .000    .000
    .000    .000    .000    .000    .000  10.548  17.924  23.269  28.822  34.440  39.963  45.213  49.998  54.109  57.327  59.433  60.254  59.711  57.863  54.897
  51.075  46.684  42.010  37.329  32.880  28.824  25.198  21.934  18.917  16.042  13.237  10.460   7.701   4.967    .962    .000    .000    .000    .000    .000
    .000    .000    .000    .000    .000   9.851  16.789  21.787  26.961  32.187  37.326  42.226  46.715  50.597  53.637  55.572  56.143  55.212  52.857  49.346
  45.024  40.222  35.247  30.410  26.018  22.286  19.212  16.609  14.259  12.005   9.760   7.486   5.176   2.845    .000    .000    .000    .000    .000    .000
    .000    .000    .000    .000    .000   8.879  15.423  20.119  24.966  29.855  34.673  39.294  43.576  47.346  50.371  52.317  52.768  51.424  48.408  44.184
  39.235  33.927  28.550  23.422  18.979  15.617  13.261  11.467   9.861   8.251   6.556   4.756   2.860    .896    .000    .000    .000    .000    .000    .000
    .000    .000    .000    .000    .000   7.664  13.861  18.290  22.842  27.427  31.954  36.328  40.446  44.180  47.337  49.560  50.152  48.345  44.393  39.262
  33.627  27.827  22.046  16.497  11.761   8.878   7.580   6.762   5.927   4.928   3.730   2.345    .807    .000    .000    .000    .000    .000    .000    .000
    .000    .000    .000    .000    .000   6.245  12.155  16.337  20.605  24.889  29.121  33.234  37.160  40.829  44.146  46.908  48.270  45.822  40.400  34.256
  28.050  21.975  16.044  10.196   4.589   2.511   2.771   2.892   2.702   2.189   1.379    .318    .000    .000    .000    .000    .000    .000    .000    .000
    .000    .000    .000    .000    .000   4.707  10.386  14.315  18.284  22.246  26.150  29.943  33.577  37.010  40.209  43.162  45.878  42.340  35.442  28.689
  22.300  16.391  10.889   5.641    .872    .000    .000    .236    .376    .142    .000    .000    .000    .000    .000    .000    .000    .000    .000    .000
    .000    .000    .000    .000    .000   3.329   8.664  12.285  15.917  19.520  23.048  26.447  29.660  32.620  35.226  37.249  37.821  34.745  28.815  22.307
  16.223  11.006   6.566   2.724    .000    .000    .000    .000    .000    .000    .000    .000    .000    .000    .000    .000    .000    .000    .000    .000
    .000    .000    .000    .000    .000   2.349   7.049  10.291  13.542  16.751  19.863  22.812  25.514  27.855  29.642  30.511  29.770  26.694  21.547  15.451
   9.811   5.765   2.852    .525    .000    .000    .000    .000    .000    .000    .000    .000    .000    .000    .000    .000    .000    .000    .000    .000
    .000    .000    .000    .000    .000   1.476   5.520   8.348  11.192  13.990  16.672  19.155  21.334  23.062  24.121  24.186  22.835  19.751  15.010   9.062
   3.158   1.080    .000    .000    .000    .000    .000    .000    .000    .000    .000    .000    .000    .000    .000    .000    .000    .000    .000    .000
    .000    .000    .000    .000    .000    .585   4.037   6.457   8.897  11.291  13.559  15.605  17.312  18.532  19.072  18.690  17.135  14.255  10.103   4.981
    .095    .000    .000    .000    .000    .000    .000    .000    .000    .000    .000    .000    .000    .000    .000    .000    .000    .000    .000    .000
    .000    .000    .000    .000    .000    .000   2.592   4.624   6.682   8.704  10.601  12.268  13.591  14.440  14.665  14.104  12.618  10.162   6.862   3.148
    .000    .000    .000    .000    .000    .000    .000    .000    .000    .000    .000    .000    .000    .000    .000    .000    .000    .000    .000    .000
    .000    .000    .000    .000    .000    .000   1.204   2.869   4.574   6.277   7.867   9.226  10.254  10.854  10.924  10.365   9.109   7.173   4.715   2.086
    .000    .000    .000    .000    .000    .000    .000    .000    .000    .000    .000    .000    .000    .000    .000    .000    .000    .000    .000    .000
    .000    .000    .000    .000    .000    .000    .000    .460   1.679   3.072   4.327   5.330   6.035   6.416   6.441   6.069   5.273   4.084   2.616   1.049
    .000    .000    .000    .000    .000    .000    .000    .000    .000    .000    .000    .000    .000    .000    .000    .000    .000    .000    .000    .000
    .000    .000    .000    .000    .000    .000    .000    .000    .000    .000    .000    .364    .475    .344    .690    .921    .903    .685    .340    .000
    .000    .000    .000    .000    .000    .000    .000    .000    .000    .000    .000    .000    .000    .000    .000    .000    .000    .000    .000    .000
    .000    .000    .000    .000    .000    .000    .000    .000    .000    .000    .000    .000    .000    .000    .000    .000    .000    .000    .000    .000
    .000    .000    .000    .000    .000    .000    .000    .000    .000    .000    .000    .000    .000    .000    .000    .000    .000    .000    .000    .000
    .000    .000    .000    .000    .000    .000    .000    .000    .000    .000    .000    .000    .000    .000    .000    .000    .000    .000    .000    .000
    .000    .000    .000    .000    .000    .000    .000    .000    .000    .000    .000    .000    .000    .000    .000    .000    .000    .000    .000    .000
    .000    .000    .000    .000    .000    .000    .000    .000    .000    .000    .000    .000    .000    .000    .000    .000    .000    .000    .000    .000
    .000    .000    .000    .000    .000    .000    .000    .000    .000    .000    .000    .000    .000    .000    .000    .000    .000    .000    .000    .000
    .000    .000    .000    .000    .000    .000    .000    .000    .000    .000    .000    .000    .000    .000    .000    .000    .000    .000    .000    .000
    .000    .000    .000    .000    .000    .000    .000    .000    .000    .000    .000    .000    .000    .000    .000    .000    .000    .000    .000    .000
    .000    .000    .000    .000    .000    .000    .000    .000    .000    .000    .000    .000    .000    .000    .000    .000    .000    .000    .000    .000
    .000    .000    .000    .000    .000    .000    .000    .000    .000    .000    .000    .000    .000    .000    .000    .000    .000    .000    .000    .000
    .000    .000    .000    .000    .000    .000    .000    .000    .000    .000    .000    .000    .000    .000    .000    .000    .000    .000    .000    .000
    .000    .000    .000    .000    .000    .000    .000    .000    .000    .000    .000    .000    .000    .000    .000    .000    .000    .000    .000    .000
         1        0.(20F8.3)                     5      |SCONC-LAYER3
    .000    .000    .000    .000    .000    .000    .000    .000    .000    .000    .000    .000    .000    .000    .000    .000    .000    .000    .000    .000
    .000    .000    .000    .000    .000    .000    .000    .000    .000    .000    .000    .000    .000    .000    .000    .000    .000    .000    .000    .000
    .000    .000    .000    .000    .000    .000    .000    .000    .000    .000    .000    .000    .000    .000    .000    .000    .000    .000    .000    .000
    .000    .000    .000    .000    .000    .000    .000    .000    .000    .000    .000    .000    .000    .000    .000    .000    .000    .000    .000    .000
    .000    .000    .000    .000    .000    .000    .000    .000    .000    .000    .000    .000    .000    .000    .000    .000    .000    .000    .000    .000
    .000    .000    .000    .000    .000    .000    .000    .000    .000    .000    .000    .000    .000    .000    .000    .000    .000    .000    .000    .000
    .000    .000    .000    .000    .000    .000    .000    .000    .000    .000    .000    .000    .000    .000    .000    .000    .000    .000    .000    .000
    .000    .000    .000    .000    .000    .000    .000    .000    .000    .000    .000    .000    .000    .000    .000    .000    .000    .000    .000    .000
    .000    .000    .000    .000    .000    .000    .000    .000    .000    .000    .000    .000    .000    .000    .000    .000    .000    .000    .000    .000
    .000    .000    .000    .000    .000    .000    .000    .000    .000    .000    .000    .000    .000    .000    .000    .000    .000    .000    .000    .000
    .000    .000    .000    .000    .000    .000    .000    .000    .000    .000    .000    .000    .000    .000    .000    .000    .000    .000    .000    .000
    .000    .000    .000    .000    .000    .000    .000    .000    .000    .000    .000    .000   1.417   2.899   4.578   5.697   1.397    .000    .000    .000
    .000    .000    .000    .000    .000    .000    .000    .000    .067   2.133   4.157   6.173   8.354  11.073  14.330  17.585  20.496  22.875  24.580  25.467
  25.399  24.283  22.334  21.284  22.586  23.349  22.459  21.169  23.215  27.730  31.682  34.340  35.717  35.986  34.754  28.544  11.648    .000    .000    .000
    .000    .000    .000    .000    .000    .000   2.923   6.493  10.255  14.181  18.267  22.533  27.005  31.696  36.581  41.592  46.641  51.645  56.538  61.274
  65.837  70.236  74.484  78.512  82.072  84.761  86.223  86.344  85.252  83.133  80.135  76.386  72.029  67.221  59.481  43.530  16.016    .000    .000    .000
    .000    .000    .000    .000    .000    .590   6.625  11.062  15.738  20.616  25.686  30.954  36.436  42.141  48.069  54.205  60.528  67.024  73.685  80.513
  87.512  94.657 101.843 108.807 115.045 119.803 122.245 121.830 118.630 113.261 106.501  98.993  91.170  83.296  71.715  50.294  17.331    .000    .000    .000
    .000    .000    .000    .000    .000   2.202   9.100  14.141  19.419  24.896  30.568  36.443  42.538  48.870  55.451  62.294  69.410  76.817  84.544  92.628
 101.098 109.952 119.089 128.221 136.718 143.475 146.995 146.115 140.974 132.871 123.236 113.062 102.896  93.014  78.967  54.081  17.737    .000    .000    .000
    .000    .000    .000    .000    .000   3.749  11.628  17.266  23.105  29.128  35.338  41.753  48.391  55.278  62.438  69.899  77.696  85.875  94.493 103.620
 113.326 123.657 134.592 145.928 157.087 166.697 172.144 170.676 162.653 151.036 138.214 125.374 113.011 101.307  85.062  57.074  17.698    .000    .000    .000
    .000    .000    .000    .000    .000   5.438  14.333  20.489  26.804  33.289  39.957  46.827  53.923  61.273  68.906  76.861  85.187  93.944 103.212 113.085
 123.670 135.076 147.387 160.599 174.469 187.974 197.398 195.001 182.066 166.119 150.159 135.003 120.845 107.685  89.681  59.125  17.165    .000    .000    .000
    .000    .000    .000    .000    .000   7.966  17.353  23.846  30.511  37.354  44.385  51.620  59.078  66.782  74.765  83.067  91.738 100.846 110.475 120.728
 131.730 143.621 156.557 170.692 186.166 203.026 220.434 215.709 195.174 175.669 157.661 141.096 125.847 111.774  92.600  60.132  16.101    .000    .000    .000
    .000    .000    .000    .000    .000  11.350  20.657  27.305  34.191  41.288  48.587  56.093  63.811  71.760  79.963  88.453  97.276 106.490 116.170 126.407
 137.307 148.992 161.585 175.195 189.844 205.182 218.348 214.380 196.543 177.692 159.818 143.178 127.738 113.397  93.720  60.057  14.484    .000    .000    .000
    .000    .000    .000    .000   1.338  14.806  24.043  30.755  37.773  45.040  52.525  60.214  68.100  76.186  84.483  93.009 101.795 110.880 120.315 130.157
 140.466 151.292 162.647 174.431 186.252 196.881 203.018 199.822 188.063 172.795 156.899 141.400 126.619 112.627  93.092  58.926  12.313    .000    .000    .000
    .000    .000    .000    .000   3.768  18.029  27.305  34.068  41.175  48.556  56.165  63.967  71.940  80.069  88.346  96.773 105.355 114.107 123.044 132.179
 141.508 150.994 160.519 169.807 178.255 184.669 187.124 183.897 175.320 163.445 150.142 136.470 122.936 109.766  90.905  56.844   9.605    .000    .000    .000
    .000    .000    .000    .000   5.981  20.924  30.313  37.141  44.324  51.791  59.481  67.346  75.343  83.441  91.608  99.826 108.072 116.333 124.585 132.794
 140.896 148.776 156.229 162.898 168.214 171.360 171.434 167.918 161.091 151.812 140.997 129.351 117.345 105.280  87.458  53.985   6.420    .000    .000    .000
    .000    .000    .000    .000   7.909  23.449  32.993  39.903  47.167  54.708  62.459  70.356  78.338  86.351  94.347 102.278 110.099 117.763 125.216 132.382
 139.151 145.357 150.752 154.974 157.559 158.025 156.129 152.124 146.462 139.286 130.702 121.007 110.568  99.701  83.107  50.588   2.892    .000    .000    .000
    .000    .000    .000    .000   9.510  25.576  35.300  42.312  49.668  57.290  65.098  73.016  80.965  88.870  96.659 104.261 111.607 118.624 125.232 131.326
 136.772 141.380 144.895 146.980 147.249 145.377 141.435 136.576 132.056 126.889 120.275 112.294 103.275  93.553  78.221  46.936    .000    .000    .000    .000
    .000    .000    .000    .000  10.756  27.286  37.206  44.339  51.806  59.526  67.406  75.355  83.276  91.072  98.648 105.912 112.773 119.139 124.910 129.972
 134.183 137.361 139.270 139.620 138.083 134.343 128.238 121.292 118.964 115.721 110.601 103.913  96.028  87.280  73.126  43.304    .000    .000    .000    .000
    .000    .000    .000    .000  11.623  28.560  38.691  45.966  53.570  61.415  69.397  77.405  85.325  93.036 100.423 107.369 113.766 119.508 124.490 128.600
 131.708 133.663 134.278 133.340 130.627 125.954 119.343 112.533 109.851 106.866 102.316  96.342  89.215  81.210  68.073  39.885    .000    .000    .000    .000
    .000    .000    .000    .000  12.094  29.379  39.735  47.175  54.949  62.958  71.084  79.199  87.166  94.841 102.084 108.758 114.736 119.906 124.165 127.416
 129.561 130.495 130.102 128.269 124.923 120.119 114.296 108.697 104.366 100.319  95.534  89.750  83.027  75.529  63.223  36.743    .000    .000    .000    .000
    .000    .000    .000    .000  12.151  29.722  40.317  47.949  55.932  64.154  72.482  80.768  88.850  96.558 103.726 110.192 115.813 120.472 124.076 126.555
 127.854 127.927 126.737 124.267 120.564 115.812 110.432 105.053 100.057  95.174  89.925  84.043  77.478  70.299  58.645  33.836    .000    .000    .000    .000
    .000    .000    .000    .000  11.783  29.564  40.413  48.266  56.502  64.995  73.595  82.131  90.414  98.247 105.430 111.771 117.106 121.314 124.319 126.088
 126.620 125.934 124.065 121.075 117.080 112.282 106.993 101.555  96.160  90.737  85.077  79.010  72.473  65.486  54.343  31.075    .000    .000    .000    .000
    .000    .000    .000    .000  10.981  28.878  39.992  48.099  56.638  65.467  74.417  83.295  91.885  99.955 107.263 113.579 118.706 122.516 124.953 126.037
 125.832 124.426 121.923 118.437 114.116 109.148 103.756  98.150  92.452  86.659  80.685  74.439  67.879  61.014  50.270  28.376    .000    .000    .000    .000