# MODFLOW2000 Constant-Head Boundary Package (CHD)
       596
       596         0
         1         1         110.000000010.0000000  0
         1         1         210.000000010.0000000  0
         1         1         310.000000010.0000000  0
         1         1         410.000000010.0000000  0
         1         1         510.000000010.0000000  0
         1         1         610.000000010.0000000  0
         1         1         710.000000010.0000000  0
         1         1         810.000000010.0000000  0
         1         1         910.000000010.0000000  0
         1         1        1010.000000010.0000000  0
         1         1        1110.000000010.0000000  0
         1         1        1210.000000010.0000000  0
         1         1        1310.000000010.0000000  0
         1         1        1410.000000010.0000000  0
         1         1        1510.000000010.0000000  0
         1         1        1610.000000010.0000000  0
         1         1        1710.000000010.0000000  0
         1         1        1810.000000010.0000000  0
         1         1        1910.000000010.0000000  0
         1         1        2010.000000010.0000000  0
         1         1        2110.000000010.0000000  0
         1         1        2210.000000010.0000000  0
         1         1        2310.000000010.0000000  0
         1         1        2410.000000010.0000000  0
         1         1        2510.000000010.0000000  0
         1         1        2610.000000010.0000000  0
         1         1        2710.000000010.0000000  0
         1         1        2810.000000010.0000000  0
         1         1        2910.000000010.0000000  0
         1         1        3010.000000010.0000000  0
         1         1        3110.000000010.0000000  0
         1         1        3210.000000010.0000000  0
         1         1        3310.000000010.0000000  0
         1         1        3410.000000010.0000000  0
         1         1        3510.000000010.0000000  0
         1         1        3610.000000010.0000000  0
         1         1        3710.000000010.0000000  0
         1         1        3810.000000010.0000000  0
         1         1        3910.000000010.0000000  0
         1         1        4010.000000010.0000000  0
         1         1        4110.000000010.0000000  0
         1         1        4210.000000010.0000000  0
         1         1        4310.000000010.0000000  0
         1         1        4410.000000010.0000000  0
         1         1        4510.000000010.0000000  0
         1         1        4610.000000010.0000000  0
         1         1        4710.000000010.0000000  0
         1         1        4810.000000010.0000000  0
         1         1        4910.000000010.0000000  0
         1         1        5010.000000010.0000000  0
         1         1        5110.000000010.0000000  0
         1         1        5210.000000010.0000000  0
         1         1        5310.000000010.0000000  0
         1         1        5410.000000010.0000000  0
         1         1        5510.000000010.0000000  0
         1         1        5610.000000010.0000000  0
         1         1        5710.000000010.0000000  0
         1         1        5810.000000010.0000000  0
         1         1        5910.000000010.0000000  0
         1         1        6010.000000010.0000000  0
         1         1        6110.000000010.0000000  0
         1         1        6210.000000010.0000000  0
         1         1        6310.000000010.0000000  0
         1         1        6410.000000010.0000000  0
         1         1        6510.000000010.0000000  0
         1         1        6610.000000010.0000000  0
         1         1        6710.000000010.0000000  0
         1         1        6810.000000010.0000000  0
         1         1        6910.000000010.0000000  0
         1         1        7010.000000010.0000000  0
         1         1        7110.000000010.0000000  0
         1         1        7210.000000010.0000000  0
         1         1        7310.000000010.0000000  0
         1         1        7410.000000010.0000000  0
         1         1        7510.000000010.0000000  0
         1         1        7610.000000010.0000000  0
         1         1        7710.000000010.0000000  0
         1         1        7810.000000010.0000000  0
         1         1        7910.000000010.0000000  0
         1         1        8010.000000010.0000000  0
         1         1        8110.000000010.0000000  0
         1         1        8210.000000010.0000000  0
         1         1        8310.000000010.0000000  0
         1         1        8410.000000010.0000000  0
         1         1        8510.000000010.0000000  0
         1         1        8610.000000010.0000000  0
         1         1        8710.000000010.0000000  0
         1         1        8810.000000010.0000000  0
         1         1        8910.000000010.0000000  0
         1         1        9010.000000010.0000000  0
         1         1        9110.000000010.0000000  0
         1         1        9210.000000010.0000000  0
         1         1        9310.000000010.0000000  0
         1         1        9410.000000010.0000000  0
         1         1        9510.000000010.0000000  0
         1         1        9610.000000010.0000000  0
         1         1        9710.000000010.0000000  0
         1         1        9810.000000010.0000000  0
         1         1        9910.000000010.0000000  0
         1         1       10010.000000010.0000000  0
         1       100         1 30.000000 30.000000  0
         1       100         2 30.000000 30.000000  0
         1       100         3 30.000000 30.000000  0
         1       100         4 30.000000 30.000000  0
         1       100         5 30.000000 30.000000  0
         1       100         6 30.000000 30.000000  0
         1       100         7 30.000000 30.000000  0
         1       100         8 30.000000 30.000000  0
         1       100         9 30.000000 30.000000  0
         1       100        10 30.000000 30.000000  0
         1       100        11 30.000000 30.000000  0
         1       100        12 30.000000 30.000000  0
         1       100        13 30.000000 30.000000  0
         1       100        14 30.000000 30.000000  0
         1       100        15 30.000000 30.000000  0
         1       100        16 30.000000 30.000000  0
         1       100        17 30.000000 30.000000  0
         1       100        18 30.000000 30.000000  0
         1       100        19 30.000000 30.000000  0
         1       100        20 30.000000 30.000000  0
         1       100        21 30.000000 30.000000  0
         1       100        22 30.000000 30.000000  0
         1       100        23 30.000000 30.000000  0
         1       100        24 30.000000 30.000000  0
         1       100        25 30.000000 30.000000  0
         1       100        26 30.000000 30.000000  0
         1       100        27 30.000000 30.000000  0
         1       100        28 30.000000 30.000000  0
         1       100        29 30.000000 30.000000  0
         1       100        30 30.000000 30.000000  0
         1       100        31 30.000000 30.000000  0
         1       100        32 30.000000 30.000000  0
         1       100        33 30.000000 30.000000  0
         1       100        34 30.000000 30.000000  0
         1       100        35 30.000000 30.000000  0
         1       100        36 30.000000 30.000000  0
         1       100        37 30.000000 30.000000  0
         1       100        38 30.000000 30.000000  0
         1       100        39 30.000000 30.000000  0
         1       100        40 30.000000 30.000000  0
         1       100        41 30.000000 30.000000  0
         1       100        42 30.000000 30.000000  0
         1       100        43 30.000000 30.000000  0
         1       100        44 30.000000 30.000000  0
         1       100        45 30.000000 30.000000  0
         1       100        46 30.000000 30.000000  0
         1       100        47 30.000000 30.000000  0
         1       100        48 30.000000 30.000000  0
         1       100        49 30.000000 30.000000  0
         1       100        50 30.000000 30.000000  0
         1       100        51 30.000000 30.000000  0
         1       100        52 30.000000 30.000000  0
         1       100        53 30.000000 30.000000  0
         1       100        54 30.000000 30.000000  0
         1       100        55 30.000000 30.000000  0
         1       100        56 30.000000 30.000000  0
         1       100        57 30.000000 30.000000  0
         1       100        58 30.000000 30.000000  0
         1       100        59 30.000000 30.000000  0
         1       100        60 30.000000 30.000000  0
         1       100        61 30.000000 30.000000  0
         1       100        62 30.000000 30.000000  0
         1       100        63 30.000000 30.000000  0
         1       100        64 30.000000 30.000000  0
         1       100        65 30.000000 30.000000  0
         1       100        66 30.000000 30.000000  0
         1       100        67 30.000000 30.000000  0
         1       100        68 30.000000 30.000000  0
         1       100        69 30.000000 30.000000  0
         1       100        70 30.000000 30.000000  0
         1       100        71 30.000000 30.000000  0
         1       100        72 30.000000 30.000000  0
         1       100        73 30.000000 30.000000  0
         1       100        74 30.000000 30.000000  0
         1       100        75 30.000000 30.000000  0
         1       100        76 30.000000 30.000000  0
         1       100        77 30.000000 30.000000  0
         1       100        78 30.000000 30.000000  0
         1       100        79 30.000000 30.000000  0
         1       100        80 30.000000 30.000000  0
         1       100        81 30.000000 30.000000  0
         1       100        82 30.000000 30.000000  0
         1       100        83 30.000000 30.000000  0
         1       100        84 30.000000 30.000000  0
         1       100        85 30.000000 30.000000  0
         1       100        86 30.000000 30.000000  0
         1       100        87 30.000000 30.000000  0
         1       100        88 30.000000 30.000000  0
         1       100        89 30.000000 30.000000  0
         1       100        90 30.000000 30.000000  0
         1       100        91 30.000000 30.000000  0
         1       100        92 30.000000 30.000000  0
         1       100        93 30.000000 30.000000  0
         1       100        94 30.000000 30.000000  0
         1       100        95 30.000000 30.000000  0
         1       100        96 30.000000 30.000000  0
         1       100        97 30.000000 30.000000  0
         1       100        98 30.000000 30.000000  0
         1       100        99 30.000000 30.000000  0
         1       100       100 30.000000 30.000000  0
         2         1         1 60.000000 60.000000  0
         2         1         2 60.000000 60.000000  0
         2         1         3 60.000000 60.000000  0
         2         1         4 60.000000 60.000000  0
         2         1         5 60.000000 60.000000  0
         2         1         6 60.000000 60.000000  0
         2         1         7 60.000000 60.000000  0
         2         1         8 60.000000 60.000000  0
         2         1         9 60.000000 60.000000  0
         2         1        10 60.000000 60.000000  0
         2         1        11 60.000000 60.000000  0
         2         1        12 60.000000 60.000000  0
         2         1        13 60.000000 60.000000  0
         2         1        14 60.000000 60.000000  0
         2         1        15 60.000000 60.000000  0
         2         1        16 60.000000 60.000000  0
         2         1        17 60.000000 60.000000  0
         2         1        18 60.000000 60.000000  0
         2         1        19 60.000000 60.000000  0
         2         1        20 60.000000 60.000000  0
         2         1        21 60.000000 60.000000  0
         2         1        22 60.000000 60.000000  0
         2         1        23 60.000000 60.000000  0
         2         1        24 60.000000 60.000000  0
         2         1        25 60.000000 60.000000  0
         2         1        26 60.000000 60.000000  0
         2         1        27 60.000000 60.000000  0
         2         1        28 60.000000 60.000000  0
         2         1        29 60.000000 60.000000  0
         2         1        30 60.000000 60.000000  0
         2         1        31 60.000000 60.000000  0
         2         1        32 60.000000 60.000000  0
         2         1        33 60.000000 60.000000  0
         2         1        34 60.000000 60.000000  0
         2         1        35 60.000000 60.000000  0
         2         1        36 60.000000 60.000000  0
         2         1        37 60.000000 60.000000  0
         2         1        38 60.000000 60.000000  0
         2         1        39 60.000000 60.000000  0
         2         1        40 60.000000 60.000000  0
         2         1        41 60.000000 60.000000  0
         2         1        42 60.000000 60.000000  0
         2         1        43 60.000000 60.000000  0
         2         1        44 60.000000 60.000000  0
         2         1        45 60.000000 60.000000  0
         2         1        46 60.000000 60.000000  0
         2         1        47 60.000000 60.000000  0
         2         1        48 60.000000 60.000000  0
         2         1        49 60.000000 60.000000  0
         2         1        50 60.000000 60.000000  0
         2         1        51 60.000000 60.000000  0
         2         1        52 60.000000 60.000000  0
         2         1        53 60.000000 60.000000  0
         2         1        54 60.000000 60.000000  0
         2         1        55 60.000000 60.000000  0
         2         1        56 60.000000 60.000000  0
         2         1        57 60.000000 60.000000  0
         2         1        58 60.000000 60.000000  0
         2         1        59 60.000000 60.000000  0
         2         1        60 60.000000 60.000000  0
         2         1        61 60.000000 60.000000  0
         2         1        62 60.000000 60.000000  0
         2         1        63 60.000000 60.000000  0
         2         1        64 60.000000 60.000000  0
         2         1        65 60.000000 60.000000  0
         2         1        66 60.000000 60.000000  0
         2         1        67 60.000000 60.000000  0
         2         1        68 60.000000 60.000000  0
         2         1        69 60.000000 60.000000  0
         2         1        70 60.000000 60.000000  0
         2         1        71 60.000000 60.000000  0
         2         1        72 60.000000 60.000000  0
         2         1        73 60.000000 60.000000  0
         2         1        74 60.000000 60.000000  0
         2         1        75 60.000000 60.000000  0
         2         1        76 60.000000 60.000000  0
         2         1        77 60.000000 60.000000  0
         2         1        78 60.000000 60.000000  0
         2         1        79 60.000000 60.000000  0
         2         1        80 60.000000 60.000000  0
         2         1        81 60.000000 60.000000  0
         2         1        82 60.000000 60.000000  0
         2         1        83 60.000000 60.000000  0
         2         1        84 60.000000 60.000000  0
         2         1        85 60.000000 60.000000  0
         2         1        86 60.000000 60.000000  0
         2         1        87 60.000000 60.000000  0
         2         1        88 60.000000 60.000000  0
         2         1        89 60.000000 60.000000  0
         2         1        90 60.000000 60.000000  0
         2         1        91 60.000000 60.000000  0
         2         1        92 60.000000 60.000000  0
         2         1        93 60.000000 60.000000  0
         2         1        94 60.000000 60.000000  0
         2         1        95 60.000000 60.000000  0
         2         1        96 60.000000 60.000000  0
         2         1        97 60.000000 60.000000  0
         2         1        98 60.000000 60.000000  0
         2         1        99 60.000000 60.000000  0
         2         1       100 60.000000 60.000000  0
         2         2         1 60.000000 60.000000  0
         2         2       100 60.000000 60.000000  0
         2         3         1 60.000000 60.000000  0
         2         3       100 60.000000 60.000000  0
         2         4         1 60.000000 60.000000  0
         2         4       100 60.000000 60.000000  0
         2         5         1 60.000000 60.000000  0
         2         5       100 60.000000 60.000000  0
         2         6         1 60.000000 60.000000  0
         2         6       100 60.000000 60.000000  0
         2         7         1 60.000000 60.000000  0
         2         7       100 60.000000 60.000000  0
         2         8         1 60.000000 60.000000  0
         2         8       100 60.000000 60.000000  0
         2         9         1 60.000000 60.000000  0
         2         9       100 60.000000 60.000000  0
         2        10         1 60.000000 60.000000  0
         2        10       100 60.000000 60.000000  0
         2        11         1 60.000000 60.000000  0
         2        11       100 60.000000 60.000000  0
         2        12         1 60.000000 60.000000  0
         2        12       100 60.000000 60.000000  0
         2        13         1 60.000000 60.000000  0
         2        13       100 60.000000 60.000000  0
         2        14         1 60.000000 60.000000  0
         2        14       100 60.000000 60.000000  0
         2        15         1 60.000000 60.000000  0
         2        15       100 60.000000 60.000000  0
         2        16         1 60.000000 60.000000  0
         2        16       100 60.000000 60.000000  0
         2        17         1 60.000000 60.000000  0
         2        17       100 60.000000 60.000000  0
         2        18         1 60.000000 60.000000  0
         2        18       100 60.000000 60.000000  0
         2        19         1 60.000000 60.000000  0
         2        19       100 60.000000 60.000000  0
         2        20         1 60.000000 60.000000  0
         2        20       100 60.000000 60.000000  0
         2        21         1 60.000000 60.000000  0
         2        21       100 60.000000 60.000000  0
         2        22         1 60.000000 60.000000  0
         2        22       100 60.000000 60.000000  0
         2        23         1 60.000000 60.000000  0
         2        23       100 60.000000 60.000000  0
         2        24         1 60.000000 60.000000  0
         2        24       100 60.000000 60.000000  0
         2        25         1 60.000000 60.000000  0
         2        25       100 60.000000 60.000000  0
         2        26         1 60.000000 60.000000  0
         2        26       100 60.000000 60.000000  0
         2        27         1 60.000000 60.000000  0
         2        27       100 60.000000 60.000000  0
         2        28         1 60.000000 60.000000  0
         2        28       100 60.000000 60.000000  0
         2        29         1 60.000000 60.000000  0
         2        29       100 60.000000 60.000000  0
         2        30         1 60.000000 60.000000  0
         2        30       100 60.000000 60.000000  0
         2        31         1 60.000000 60.000000  0
         2        31       100 60.000000 60.000000  0
         2        32         1 60.000000 60.000000  0
         2        32       100 60.000000 60.000000  0
         2        33         1 60.000000 60.000000  0
         2        33       100 60.000000 60.000000  0
         2        34         1 60.000000 60.000000  0
         2        34       100 60.000000 60.000000  0
         2        35         1 60.000000 60.000000  0
         2        35       100 60.000000 60.000000  0
         2        36         1 60.000000 60.000000  0
         2        36       100 60.000000 60.000000  0
         2        37         1 60.000000 60.000000  0
         2        37       100 60.000000 60.000000  0
         2        38         1 60.000000 60.000000  0
         2        38       100 60.000000 60.000000  0
         2        39         1 60.000000 60.000000  0
         2        39       100 60.000000 60.000000  0
         2        40         1 60.000000 60.000000  0
         2        40       100 60.000000 60.000000  0
         2        41         1 60.000000 60.000000  0
         2        41       100 60.000000 60.000000  0
         2        42         1 60.000000 60.000000  0
         2        42       100 60.000000 60.000000  0
         2        43         1 60.000000 60.000000  0
         2        43       100 60.000000 60.000000  0
         2        44         1 60.000000 60.000000  0
         2        44       100 60.000000 60.000000  0
         2        45         1 60.000000 60.000000  0
         2        45       100 60.000000 60.000000  0
         2        46         1 60.000000 60.000000  0
         2        46       100 60.000000 60.000000  0
         2        47         1 60.000000 60.000000  0
         2        47       100 60.000000 60.000000  0
         2        48         1 60.000000 60.000000  0
         2        48       100 60.000000 60.000000  0
         2        49         1 60.000000 60.000000  0
         2        49       100 60.000000 60.000000  0
         2        50         1 60.000000 60.000000  0
         2        50       100 60.000000 60.000000  0
         2        51         1 60.000000 60.000000  0
         2        51       100 60.000000 60.000000  0
         2        52         1 60.000000 60.000000  0
         2        52       100 60.000000 60.000000  0
         2        53         1 60.000000 60.000000  0
         2        53       100 60.000000 60.000000  0
         2        54         1 60.000000 60.000000  0
         2        54       100 60.000000 60.000000  0
         2        55         1 60.000000 60.000000  0
         2        55       100 60.000000 60.000000  0
         2        56         1 60.000000 60.000000  0
         2        56       100 60.000000 60.000000  0
         2        57         1 60.000000 60.000000  0
         2        57       100 60.000000 60.000000  0
         2        58         1 60.000000 60.000000  0
         2        58       100 60.000000 60.000000  0
         2        59         1 60.000000 60.000000  0
         2        59       100 60.000000 60.000000  0
         2        60         1 60.000000 60.000000  0
         2        60       100 60.000000 60.000000  0
         2        61         1 60.000000 60.000000  0
         2        61       100 60.000000 60.000000  0
         2        62         1 60.000000 60.000000  0
         2        62       100 60.000000 60.000000  0
         2        63         1 60.000000 60.000000  0
         2        63       100 60.000000 60.000000  0
         2        64         1 60.000000 60.000000  0
         2        64       100 60.000000 60.000000  0
         2        65         1 60.000000 60.000000  0
         2        65       100 60.000000 60.000000  0
         2        66         1 60.000000 60.000000  0
         2        66       100 60.000000 60.000000  0
         2        67         1 60.000000 60.000000  0
         2        67       100 60.000000 60.000000  0
         2        68         1 60.000000 60.000000  0
         2        68       100 60.000000 60.000000  0
         2        69         1 60.000000 60.000000  0
         2        69       100 60.000000 60.000000  0
         2        70         1 60.000000 60.000000  0
         2        70       100 60.000000 60.000000  0
         2        71         1 60.000000 60.000000  0
         2        71       100 60.000000 60.000000  0
         2        72         1 60.000000 60.000000  0
         2        72       100 60.000000 60.000000  0
         2        73         1 60.000000 60.000000  0
         2        73       100 60.000000 60.000000  0
         2        74         1 60.000000 60.000000  0
         2        74       100 60.000000 60.000000  0
         2        75         1 60.000000 60.000000  0
         2        75       100 60.000000 60.000000  0
         2        76         1 60.000000 60.000000  0
         2        76       100 60.000000 60.000000  0
         2        77         1 60.000000 60.000000  0
         2        77       100 60.000000 60.000000  0
         2        78         1 60.000000 60.000000  0
         2        78       100 60.000000 60.000000  0
         2        79         1 60.000000 60.000000  0
         2        79       100 60.000000 60.000000  0
         2        80         1 60.000000 60.000000  0
         2        80       100 60.000000 60.000000  0
         2        81         1 60.000000 60.000000  0
         2        81       100 60.000000 60.000000  0
         2        82         1 60.000000 60.000000  0
         2        82       100 60.000000 60.000000  0
         2        83         1 60.000000 60.000000  0
         2        83       100 60.000000 60.000000  0
         2        84         1 60.000000 60.000000  0
         2        84       100 60.000000 60.000000  0
         2        85         1 60.000000 60.000000  0
         2        85       100 60.000000 60.000000  0
         2        86         1 60.000000 60.000000  0
         2        86       100 60.000000 60.000000  0
         2        87         1 60.000000 60.000000  0
         2        87       100 60.000000 60.000000  0
         2        88         1 60.000000 60.000000  0
         2        88       100 60.000000 60.000000  0
         2        89         1 60.000000 60.000000  0
         2        89       100 60.000000 60.000000  0
         2        90         1 60.000000 60.000000  0
         2        90       100 60.000000 60.000000  0
         2        91         1 60.000000 60.000000  0
         2        91       100 60.000000 60.000000  0
         2        92         1 60.000000 60.000000  0
         2        92       100 60.000000 60.000000  0
         2        93         1 60.000000 60.000000  0
         2        93       100 60.000000 60.000000  0
         2        94         1 60.000000 60.000000  0
         2        94       100 60.000000 60.000000  0
         2        95         1 60.000000 60.000000  0
         2        95       100 60.000000 60.000000  0
         2        96         1 60.000000 60.000000  0
         2        96       100 60.000000 60.000000  0
         2        97         1 60.000000 60.000000  0
         2        97       100 60.000000 60.000000  0
         2        98         1 60.000000 60.000000  0
         2        98       100 60.000000 60.000000  0
         2        99         1 60.000000 60.000000  0
         2        99       100 60.000000 60.000000  0
         2       100         1 60.000000 60.000000  0
         2       100         2 60.000000 60.000000  0
         2       100         3 60.000000 60.000000  0
         2       100         4 60.000000 60.000000  0
         2       100         5 60.000000 60.000000  0
         2       100         6 60.000000 60.000000  0
         2       100         7 60.000000 60.000000  0
         2       100         8 60.000000 60.000000  0
         2       100         9 60.000000 60.000000  0
         2       100        10 60.000000 60.000000  0
         2       100        11 60.000000 60.000000  0
         2       100        12 60.000000 60.000000  0
         2       100        13 60.000000 60.000000  0
         2       100        14 60.000000 60.000000  0
         2       100        15 60.000000 60.000000  0
         2       100        16 60.000000 60.000000  0
         2       100        17 60.000000 60.000000  0
         2       100        18 60.000000 60.000000  0
         2       100        19 60.000000 60.000000  0
         2       100        20 60.000000 60.000000  0
         2       100        21 60.000000 60.000000  0
         2       100        22 60.000000 60.000000  0
         2       100        23 60.000000 60.000000  0
         2       100        24 60.000000 60.000000  0
         2       100        25 60.000000 60.000000  0
         2       100        26 60.000000 60.000000  0
         2       100        27 60.000000 60.000000  0
         2       100        28 60.000000 60.000000  0
         2       100        29 60.000000 60.000000  0
         2       100        30 60.000000 60.000000  0
         2       100        31 60.000000 60.000000  0
         2       100        32 60.000000 60.000000  0
         2       100        33 60.000000 60.000000  0
         2       100        34 60.000000 60.000000  0
         2       100        35 60.000000 60.000000  0
         2       100        36 60.000000 60.000000  0
         2       100        37 60.000000 60.000000  0
         2       100        38 60.000000 60.000000  0
         2       100        39 60.000000 60.000000  0
         2       100        40 60.000000 60.000000  0
         2       100        41 60.000000 60.000000  0
         2       100        42 60.000000 60.000000  0
         2       100        43 60.000000 60.000000  0
         2       100        44 60.000000 60.000000  0
         2       100        45 60.000000 60.000000  0
         2       100        46 60.000000 60.000000  0
         2       100        47 60.000000 60.000000  0