Conversion from Groundwater Vistas
MT3D Model
       100         1       200         1         2         2
D   FT  LB  
 T T T T T
 0 0 0 0 0 0 0 0 0 0 0 0 0 0 0 0 0 0 0 0 0 0 0 0 0 0 0 0 0 0 0 0 0 0 0 0 0 0 0 0
 0 0 0 0 0 0 0 0 0 0 0 0 0 0 0 0 0 0 0 0 0 0 0 0 0 0 0 0 0 0 0 0 0 0 0 0 0 0 0 0
 0 0 0 0 0 0 0 0 0 0 0 0 0 0 0 0 0 0 0 0
         0    10.000(10E12.4)                   -1     DELTA-X or C
         0     1.000(10E12.4)                   -1     DELTA-Y or R
         00.0000e+00(10E12.4)                   -1     TOP OF MODEL
         0    10.000(10E12.4)                   -1     DELZ Layer   1
         0    10.000(10E12.4)                   -1     DELZ Layer   2
         0    10.000(10E12.4)                   -1     DELZ Layer   3
         0    10.000(10E12.4)                   -1     DELZ Layer   4
         0    10.000(10E12.4)                   -1     DELZ Layer   5
         0    10.000(10E12.4)                   -1     DELZ Layer   6
         0    10.000(10E12.4)                   -1     DELZ Layer   7
         0    10.000(10E12.4)                   -1     DELZ Layer   8
         0    10.000(10E12.4)                   -1     DELZ Layer   9
         0    10.000(10E12.4)                   -1     DELZ Layer  10
         0    10.000(10E12.4)                   -1     DELZ Layer  11
         0    10.000(10E12.4)                   -1     DELZ Layer  12
         0    10.000(10E12.4)                   -1     DELZ Layer  13
         0    10.000(10E12.4)                   -1     DELZ Layer  14
         0    10.000(10E12.4)                   -1     DELZ Layer  15
         0    10.000(10E12.4)                   -1     DELZ Layer  16
         0    10.000(10E12.4)                   -1     DELZ Layer  17
         0    10.000(10E12.4)                   -1     DELZ Layer  18
         0    10.000(10E12.4)                   -1     DELZ Layer  19
         0    10.000(10E12.4)                   -1     DELZ Layer  20
         0    10.000(10E12.4)                   -1     DELZ Layer  21
         0    10.000(10E12.4)                   -1     DELZ Layer  22
         0    10.000(10E12.4)                   -1     DELZ Layer  23
         0    10.000(10E12.4)                   -1     DELZ Layer  24
         0    10.000(10E12.4)                   -1     DELZ Layer  25
         0    10.000(10E12.4)                   -1     DELZ Layer  26
         0    10.000(10E12.4)                   -1     DELZ Layer  27
         0    10.000(10E12.4)                   -1     DELZ Layer  28
         0    10.000(10E12.4)                   -1     DELZ Layer  29
         0    10.000(10E12.4)                   -1     DELZ Layer  30
         0    10.000(10E12.4)                   -1     DELZ Layer  31
         0    10.000(10E12.4)                   -1     DELZ Layer  32
         0    10.000(10E12.4)                   -1     DELZ Layer  33
         0    10.000(10E12.4)                   -1     DELZ Layer  34
         0    10.000(10E12.4)                   -1     DELZ Layer  35
         0    10.000(10E12.4)                   -1     DELZ Layer  36
         0    10.000(10E12.4)                   -1     DELZ Layer  37
         0    10.000(10E12.4)                   -1     DELZ Layer  38
         0    10.000(10E12.4)                   -1     DELZ Layer  39
         0    10.000(10E12.4)                   -1     DELZ Layer  40
         0    10.000(10E12.4)                   -1     DELZ Layer  41
         0    10.000(10E12.4)                   -1     DELZ Layer  42
         0    10.000(10E12.4)                   -1     DELZ Layer  43
         0    10.000(10E12.4)                   -1     DELZ Layer  44
         0    10.000(10E12.4)                   -1     DELZ Layer  45
         0    10.000(10E12.4)                   -1     DELZ Layer  46
         0    10.000(10E12.4)                   -1     DELZ Layer  47
         0    10.000(10E12.4)                   -1     DELZ Layer  48
         0    10.000(10E12.4)                   -1     DELZ Layer  49
         0    10.000(10E12.4)                   -1     DELZ Layer  50
         0    10.000(10E12.4)                   -1     DELZ Layer  51
         0    10.000(10E12.4)                   -1     DELZ Layer  52
         0    10.000(10E12.4)                   -1     DELZ Layer  53
         0    10.000(10E12.4)                   -1     DELZ Layer  54
         0    10.000(10E12.4)                   -1     DELZ Layer  55
         0    10.000(10E12.4)                   -1     DELZ Layer  56
         0    10.000(10E12.4)                   -1     DELZ Layer  57
         0    10.000(10E12.4)                   -1     DELZ Layer  58
         0    10.000(10E12.4)                   -1     DELZ Layer  59
         0    10.000(10E12.4)                   -1     DELZ Layer  60
         0    10.000(10E12.4)                   -1     DELZ Layer  61
         0    10.000(10E12.4)                   -1     DELZ Layer  62
         0    10.000(10E12.4)                   -1     DELZ Layer  63
         0    10.000(10E12.4)                   -1     DELZ Layer  64
         0    10.000(10E12.4)                   -1     DELZ Layer  65
         0    10.000(10E12.4)                   -1     DELZ Layer  66
         0    10.000(10E12.4)                   -1     DELZ Layer  67
         0    10.000(10E12.4)                   -1     DELZ Layer  68
         0    10.000(10E12.4)                   -1     DELZ Layer  69
         0    10.000(10E12.4)                   -1     DELZ Layer  70
         0    10.000(10E12.4)                   -1     DELZ Layer  71
         0    10.000(10E12.4)                   -1     DELZ Layer  72
         0    10.000(10E12.4)                   -1     DELZ Layer  73
         0    10.000(10E12.4)                   -1     DELZ Layer  74
         0    10.000(10E12.4)                   -1     DELZ Layer  75
         0    10.000(10E12.4)                   -1     DELZ Layer  76
         0    10.000(10E12.4)                   -1     DELZ Layer  77
         0    10.000(10E12.4)                   -1     DELZ Layer  78
         0    10.000(10E12.4)                   -1     DELZ Layer  79
         0    10.000(10E12.4)                   -1     DELZ Layer  80
         0    10.000(10E12.4)                   -1     DELZ Layer  81
         0    10.000(10E12.4)                   -1     DELZ Layer  82
         0    10.000(10E12.4)                   -1     DELZ Layer  83
         0    10.000(10E12.4)                   -1     DELZ Layer  84
         0    10.000(10E12.4)                   -1     DELZ Layer  85
         0    10.000(10E12.4)                   -1     DELZ Layer  86
         0    10.000(10E12.4)                   -1     DELZ Layer  87
         0    10.000(10E12.4)                   -1     DELZ Layer  88
         0    10.000(10E12.4)                   -1     DELZ Layer  89
         0    10.000(10E12.4)                   -1     DELZ Layer  90
         0    10.000(10E12.4)                   -1     DELZ Layer  91
         0    10.000(10E12.4)                   -1     DELZ Layer  92
         0    10.000(10E12.4)                   -1     DELZ Layer  93
         0    10.000(10E12.4)                   -1     DELZ Layer  94
         0    10.000(10E12.4)                   -1     DELZ Layer  95
         0    10.000(10E12.4)                   -1     DELZ Layer  96
         0    10.000(10E12.4)                   -1     DELZ Layer  97
         0    10.000(10E12.4)                   -1     DELZ Layer  98
         0    10.000(10E12.4)                   -1     DELZ Layer  99
         0    10.000(10E12.4)                   -1     DELZ Layer 100
         03.5000e-01(10E12.4)                   -1     POROSITY Layer   1
         03.5000e-01(10E12.4)                   -1     POROSITY Layer   2
         03.5000e-01(10E12.4)                   -1     POROSITY Layer   3
         03.5000e-01(10E12.4)                   -1     POROSITY Layer   4
         03.5000e-01(10E12.4)                   -1     POROSITY Layer   5
         03.5000e-01(10E12.4)                   -1     POROSITY Layer   6
         03.5000e-01(10E12.4)                   -1     POROSITY Layer   7
         03.5000e-01(10E12.4)                   -1     POROSITY Layer   8
         03.5000e-01(10E12.4)                   -1     POROSITY Layer   9
         03.5000e-01(10E12.4)                   -1     POROSITY Layer  10
         03.5000e-01(10E12.4)                   -1     POROSITY Layer  11
         03.5000e-01(10E12.4)                   -1     POROSITY Layer  12
         03.5000e-01(10E12.4)                   -1     POROSITY Layer  13
         03.5000e-01(10E12.4)                   -1     POROSITY Layer  14
         03.5000e-01(10E12.4)                   -1     POROSITY Layer  15
         03.5000e-01(10E12.4)                   -1     POROSITY Layer  16
         03.5000e-01(10E12.4)                   -1     POROSITY Layer  17
         03.5000e-01(10E12.4)                   -1     POROSITY Layer  18
         03.5000e-01(10E12.4)                   -1     POROSITY Layer  19
         03.5000e-01(10E12.4)                   -1     POROSITY Layer  20
         03.5000e-01(10E12.4)                   -1     POROSITY Layer  21
         03.5000e-01(10E12.4)                   -1     POROSITY Layer  22
         03.5000e-01(10E12.4)                   -1     POROSITY Layer  23
         03.5000e-01(10E12.4)                   -1     POROSITY Layer  24
         03.5000e-01(10E12.4)                   -1     POROSITY Layer  25
         03.5000e-01(10E12.4)                   -1     POROSITY Layer  26
         03.5000e-01(10E12.4)                   -1     POROSITY Layer  27
         03.5000e-01(10E12.4)                   -1     POROSITY Layer  28
         03.5000e-01(10E12.4)                   -1     POROSITY Layer  29
         03.5000e-01(10E12.4)                   -1     POROSITY Layer  30
         03.5000e-01(10E12.4)                   -1     POROSITY Layer  31
         03.5000e-01(10E12.4)                   -1     POROSITY Layer  32
         03.5000e-01(10E12.4)                   -1     POROSITY Layer  33
         03.5000e-01(10E12.4)                   -1     POROSITY Layer  34
         03.5000e-01(10E12.4)                   -1     POROSITY Layer  35
         03.5000e-01(10E12.4)                   -1     POROSITY Layer  36
         03.5000e-01(10E12.4)                   -1     POROSITY Layer  37
         03.5000e-01(10E12.4)                   -1     POROSITY Layer  38
         03.5000e-01(10E12.4)                   -1     POROSITY Layer  39
         03.5000e-01(10E12.4)                   -1     POROSITY Layer  40
         03.5000e-01(10E12.4)                   -1     POROSITY Layer  41
         03.5000e-01(10E12.4)                   -1     POROSITY Layer  42
         03.5000e-01(10E12.4)                   -1     POROSITY Layer  43
         03.5000e-01(10E12.4)                   -1     POROSITY Layer  44
         03.5000e-01(10E12.4)                   -1     POROSITY Layer  45
         03.5000e-01(10E12.4)                   -1     POROSITY Layer  46
         03.5000e-01(10E12.4)                   -1     POROSITY Layer  47
         03.5000e-01(10E12.4)                   -1     POROSITY Layer  48
         03.5000e-01(10E12.4)                   -1     POROSITY Layer  49
         03.5000e-01(10E12.4)                   -1     POROSITY Layer  50
         03.5000e-01(10E12.4)                   -1     POROSITY Layer  51
         03.5000e-01(10E12.4)                   -1     POROSITY Layer  52
         03.5000e-01(10E12.4)                   -1     POROSITY Layer  53
         03.5000e-01(10E12.4)                   -1     POROSITY Layer  54
         03.5000e-01(10E12.4)                   -1     POROSITY Layer  55
         03.5000e-01(10E12.4)                   -1     POROSITY Layer  56
         03.5000e-01(10E12.4)                   -1     POROSITY Layer  57
         03.5000e-01(10E12.4)                   -1     POROSITY Layer  58
         03.5000e-01(10E12.4)                   -1     POROSITY Layer  59
         03.5000e-01(10E12.4)                   -1     POROSITY Layer  60
         03.5000e-01(10E12.4)                   -1     POROSITY Layer  61
         03.5000e-01(10E12.4)                   -1     POROSITY Layer  62
         03.5000e-01(10E12.4)                   -1     POROSITY Layer  63
         03.5000e-01(10E12.4)                   -1     POROSITY Layer  64
         03.5000e-01(10E12.4)                   -1     POROSITY Layer  65
         03.5000e-01(10E12.4)                   -1     POROSITY Layer  66
         03.5000e-01(10E12.4)                   -1     POROSITY Layer  67
         03.5000e-01(10E12.4)                   -1     POROSITY Layer  68
         03.5000e-01(10E12.4)                   -1     POROSITY Layer  69
         03.5000e-01(10E12.4)                   -1     POROSITY Layer  70
         03.5000e-01(10E12.4)                   -1     POROSITY Layer  71
         03.5000e-01(10E12.4)                   -1     POROSITY Layer  72
         03.5000e-01(10E12.4)                   -1     POROSITY Layer  73
         03.5000e-01(10E12.4)                   -1     POROSITY Layer  74
         03.5000e-01(10E12.4)                   -1     POROSITY Layer  75
         03.5000e-01(10E12.4)                   -1     POROSITY Layer  76
         03.5000e-01(10E12.4)                   -1     POROSITY Layer  77
         03.5000e-01(10E12.4)                   -1     POROSITY Layer  78
         03.5000e-01(10E12.4)                   -1     POROSITY Layer  79
         03.5000e-01(10E12.4)                   -1     POROSITY Layer  80
         03.5000e-01(10E12.4)                   -1     POROSITY Layer  81
         03.5000e-01(10E12.4)                   -1     POROSITY Layer  82
         03.5000e-01(10E12.4)                   -1     POROSITY Layer  83
         03.5000e-01(10E12.4)                   -1     POROSITY Layer  84
         03.5000e-01(10E12.4)                   -1     POROSITY Layer  85
         03.5000e-01(10E12.4)                   -1     POROSITY Layer  86
         03.5000e-01(10E12.4)                   -1     POROSITY Layer  87
         03.5000e-01(10E12.4)                   -1     POROSITY Layer  88
         03.5000e-01(10E12.4)                   -1     POROSITY Layer  89
         03.5000e-01(10E12.4)                   -1     POROSITY Layer  90
         03.5000e-01(10E12.4)                   -1     POROSITY Layer  91
         03.5000e-01(10E12.4)                   -1     POROSITY Layer  92
         03.5000e-01(10E12.4)                   -1     POROSITY Layer  93
         03.5000e-01(10E12.4)                   -1     POROSITY Layer  94
         03.5000e-01(10E12.4)                   -1     POROSITY Layer  95
         03.5000e-01(10E12.4)                   -1     POROSITY Layer  96
         03.5000e-01(10E12.4)                   -1     POROSITY Layer  97
         03.5000e-01(10E12.4)                   -1     POROSITY Layer  98
         03.5000e-01(10E12.4)                   -1     POROSITY Layer  99
         03.5000e-01(10E12.4)                   -1     POROSITY Layer 100
         0         1(25I3)                      -1     ICBUND Layer   1
         0         1(25I3)                      -1     ICBUND Layer   2
         0         1(25I3)                      -1     ICBUND Layer   3
         0         1(25I3)                      -1     ICBUND Layer   4
         0         1(25I3)                      -1     ICBUND Layer   5
         0         1(25I3)                      -1     ICBUND Layer   6
         0         1(25I3)                      -1     ICBUND Layer   7
         0         1(25I3)                      -1     ICBUND Layer   8
         0         1(25I3)                      -1     ICBUND Layer   9
         0         1(25I3)                      -1     ICBUND Layer  10
         0         1(25I3)                      -1     ICBUND Layer  11
         0         1(25I3)                      -1     ICBUND Layer  12
         0         1(25I3)                      -1     ICBUND Layer  13
         0         1(25I3)                      -1     ICBUND Layer  14
         0         1(25I3)                      -1     ICBUND Layer  15
         0         1(25I3)                      -1     ICBUND Layer  16
         0         1(25I3)                      -1     ICBUND Layer  17
         0         1(25I3)                      -1     ICBUND Layer  18
         0         1(25I3)                      -1     ICBUND Layer  19
         0         1(25I3)                      -1     ICBUND Layer  20
         0         1(25I3)                      -1     ICBUND Layer  21
         0         1(25I3)                      -1     ICBUND Layer  22
         0         1(25I3)                      -1     ICBUND Layer  23
         0         1(25I3)                      -1     ICBUND Layer  24
         0         1(25I3)                      -1     ICBUND Layer  25
         0         1(25I3)                      -1     ICBUND Layer  26
         0         1(25I3)                      -1     ICBUND Layer  27
         0         1(25I3)                      -1     ICBUND Layer  28
         0         1(25I3)                      -1     ICBUND Layer  29
         0         1(25I3)                      -1     ICBUND Layer  30
         0         1(25I3)                      -1     ICBUND Layer  31
         0         1(25I3)                      -1     ICBUND Layer  32
         0         1(25I3)                      -1     ICBUND Layer  33
         0         1(25I3)                      -1     ICBUND Layer  34
         0         1(25I3)                      -1     ICBUND Layer  35
         0         1(25I3)                      -1     ICBUND Layer  36
         0         1(25I3)                      -1     ICBUND Layer  37
         0         1(25I3)                      -1     ICBUND Layer  38
         0         1(25I3)                      -1     ICBUND Layer  39
         0         1(25I3)                      -1     ICBUND Layer  40
         0         1(25I3)                      -1     ICBUND Layer  41
         0         1(25I3)                      -1     ICBUND Layer  42
         0         1(25I3)                      -1     ICBUND Layer  43
         0         1(25I3)                      -1     ICBUND Layer  44
         0         1(25I3)                      -1     ICBUND Layer  45
         0         1(25I3)                      -1     ICBUND Layer  46
         0         1(25I3)                      -1     ICBUND Layer  47
         0         1(25I3)                      -1     ICBUND Layer  48
         0         1(25I3)                      -1     ICBUND Layer  49
         0         1(25I3)                      -1     ICBUND Layer  50
         0         1(25I3)                      -1     ICBUND Layer  51
         0         1(25I3)                      -1     ICBUND Layer  52
         0         1(25I3)                      -1     ICBUND Layer  53
         0         1(25I3)                      -1     ICBUND Layer  54
         0         1(25I3)                      -1     ICBUND Layer  55
         0         1(25I3)                      -1     ICBUND Layer  56
         0         1(25I3)                      -1     ICBUND Layer  57
         0         1(25I3)                      -1     ICBUND Layer  58
         0         1(25I3)                      -1     ICBUND Layer  59
         0         1(25I3)                      -1     ICBUND Layer  60
         0         1(25I3)                      -1     ICBUND Layer  61
         0         1(25I3)                      -1     ICBUND Layer  62
         0         1(25I3)                      -1     ICBUND Layer  63
         0         1(25I3)                      -1     ICBUND Layer  64
         0         1(25I3)                      -1     ICBUND Layer  65
         0         1(25I3)                      -1     ICBUND Layer  66
         0         1(25I3)                      -1     ICBUND Layer  67
         0         1(25I3)                      -1     ICBUND Layer  68
         0         1(25I3)                      -1     ICBUND Layer  69
         0         1(25I3)                      -1     ICBUND Layer  70
         0         1(25I3)                      -1     ICBUND Layer  71
         0         1(25I3)                      -1     ICBUND Layer  72
         0         1(25I3)                      -1     ICBUND Layer  73
         0         1(25I3)                      -1     ICBUND Layer  74
         0         1(25I3)                      -1     ICBUND Layer  75
         0         1(25I3)                      -1     ICBUND Layer  76
         0         1(25I3)                      -1     ICBUND Layer  77
         0         1(25I3)                      -1     ICBUND Layer  78
         0         1(25I3)                      -1     ICBUND Layer  79
         0         1(25I3)                      -1     ICBUND Layer  80
         0         1(25I3)                      -1     ICBUND Layer  81
         0         1(25I3)                      -1     ICBUND Layer  82
         0         1(25I3)                      -1     ICBUND Layer  83
         0         1(25I3)                      -1     ICBUND Layer  84
         0         1(25I3)                      -1     ICBUND Layer  85
         0         1(25I3)                      -1     ICBUND Layer  86
         0         1(25I3)                      -1     ICBUND Layer  87
         0         1(25I3)                      -1     ICBUND Layer  88
         0         1(25I3)                      -1     ICBUND Layer  89
         0         1(25I3)                      -1     ICBUND Layer  90
         0         1(25I3)                      -1     ICBUND Layer  91
         0         1(25I3)                      -1     ICBUND Layer  92
         0         1(25I3)                      -1     ICBUND Layer  93
         0         1(25I3)                      -1     ICBUND Layer  94
         0         1(25I3)                      -1     ICBUND Layer  95
         0         1(25I3)                      -1     ICBUND Layer  96
         0         1(25I3)                      -1     ICBUND Layer  97
         0         1(25I3)                      -1     ICBUND Layer  98
         0         1(25I3)                      -1     ICBUND Layer  99
         0         1(25I3)                      -1     ICBUND Layer 100
         0    35.000(10E12.4)                   -1     INITIAL CONCENTRATION Layer   1
         0    35.000(10E12.4)                   -1     INITIAL CONCENTRATION Layer   2
         0    35.000(10E12.4)                   -1     INITIAL CONCENTRATION Layer   3
         0    35.000(10E12.4)                   -1     INITIAL CONCENTRATION Layer   4
         0    35.000(10E12.4)                   -1     INITIAL CONCENTRATION Layer   5
         0    35.000(10E12.4)                   -1     INITIAL CONCENTRATION Layer   6
         0    35.000(10E12.4)                   -1     INITIAL CONCENTRATION Layer   7
         0    35.000(10E12.4)                   -1     INITIAL CONCENTRATION Layer   8
         0    35.000(10E12.4)                   -1     INITIAL CONCENTRATION Layer   9
         0    35.000(10E12.4)                   -1     INITIAL CONCENTRATION Layer  10
         0    35.000(10E12.4)                   -1     INITIAL CONCENTRATION Layer  11
         0    35.000(10E12.4)                   -1     INITIAL CONCENTRATION Layer  12
         0    35.000(10E12.4)                   -1     INITIAL CONCENTRATION Layer  13
         0    35.000(10E12.4)                   -1     INITIAL CONCENTRATION Layer  14
         0    35.000(10E12.4)                   -1     INITIAL CONCENTRATION Layer  15
         0    35.000(10E12.4)                   -1     INITIAL CONCENTRATION Layer  16
         0    35.000(10E12.4)                   -1     INITIAL CONCENTRATION Layer  17
         0    35.000(10E12.4)                   -1     INITIAL CONCENTRATION Layer  18
         0    35.000(10E12.4)                   -1     INITIAL CONCENTRATION Layer  19
         0    35.000(10E12.4)                   -1     INITIAL CONCENTRATION Layer  20
         0    35.000(10E12.4)                   -1     INITIAL CONCENTRATION Layer  21
         0    35.000(10E12.4)                   -1     INITIAL CONCENTRATION Layer  22
         0    35.000(10E12.4)                   -1     INITIAL CONCENTRATION Layer  23
         0    35.000(10E12.4)                   -1     INITIAL CONCENTRATION Layer  24
         0    35.000(10E12.4)                   -1     INITIAL CONCENTRATION Layer  25
         0    35.000(10E12.4)                   -1     INITIAL CONCENTRATION Layer  26
         0    35.000(10E12.4)                   -1     INITIAL CONCENTRATION Layer  27
         0    35.000(10E12.4)                   -1     INITIAL CONCENTRATION Layer  28
         0    35.000(10E12.4)                   -1     INITIAL CONCENTRATION Layer  29
         0    35.000(10E12.4)                   -1     INITIAL CONCENTRATION Layer  30
         0    35.000(10E12.4)                   -1     INITIAL CONCENTRATION Layer  31
         0    35.000(10E12.4)                   -1     INITIAL CONCENTRATION Layer  32
         0    35.000(10E12.4)                   -1     INITIAL CONCENTRATION Layer  33
         0    35.000(10E12.4)                   -1     INITIAL CONCENTRATION Layer  34
         0    35.000(10E12.4)                   -1     INITIAL CONCENTRATION Layer  35
         0    35.000(10E12.4)                   -1     INITIAL CONCENTRATION Layer  36
         0    35.000(10E12.4)                   -1     INITIAL CONCENTRATION Layer  37
         0    35.000(10E12.4)                   -1     INITIAL CONCENTRATION Layer  38
         0    35.000(10E12.4)                   -1     INITIAL CONCENTRATION Layer  39
         0    35.000(10E12.4)                   -1     INITIAL CONCENTRATION Layer  40
         0    35.000(10E12.4)                   -1     INITIAL CONCENTRATION Layer  41
         0    35.000(10E12.4)                   -1     INITIAL CONCENTRATION Layer  42
         0    35.000(10E12.4)                   -1     INITIAL CONCENTRATION Layer  43
         0    35.000(10E12.4)                   -1     INITIAL CONCENTRATION Layer  44
         0    35.000(10E12.4)                   -1     INITIAL CONCENTRATION Layer  45
         0    35.000(10E12.4)                   -1     INITIAL CONCENTRATION Layer  46
         0    35.000(10E12.4)                   -1     INITIAL CONCENTRATION Layer  47
         0    35.000(10E12.4)                   -1     INITIAL CONCENTRATION Layer  48
         0    35.000(10E12.4)                   -1     INITIAL CONCENTRATION Layer  49
         0    35.000(10E12.4)                   -1     INITIAL CONCENTRATION Layer  50
         0    35.000(10E12.4)                   -1     INITIAL CONCENTRATION Layer  51
         0    35.000(10E12.4)                   -1     INITIAL CONCENTRATION Layer  52
         0    35.000(10E12.4)                   -1     INITIAL CONCENTRATION Layer  53
         0    35.000(10E12.4)                   -1     INITIAL CONCENTRATION Layer  54
         0    35.000(10E12.4)                   -1     INITIAL CONCENTRATION Layer  55
         0    35.000(10E12.4)                   -1     INITIAL CONCENTRATION Layer  56
         0    35.000(10E12.4)                   -1     INITIAL CONCENTRATION Layer  57
         0    35.000(10E12.4)                   -1     INITIAL CONCENTRATION Layer  58
         0    35.000(10E12.4)                   -1     INITIAL CONCENTRATION Layer  59
         0    35.000(10E12.4)                   -1     INITIAL CONCENTRATION Layer  60
         0    35.000(10E12.4)                   -1     INITIAL CONCENTRATION Layer  61
         0    35.000(10E12.4)                   -1     INITIAL CONCENTRATION Layer  62
         0    35.000(10E12.4)                   -1     INITIAL CONCENTRATION Layer  63
         0    35.000(10E12.4)                   -1     INITIAL CONCENTRATION Layer  64
         0    35.000(10E12.4)                   -1     INITIAL CONCENTRATION Layer  65
         0    35.000(10E12.4)                   -1     INITIAL CONCENTRATION Layer  66
         0    35.000(10E12.4)                   -1     INITIAL CONCENTRATION Layer  67
         0    35.000(10E12.4)                   -1     INITIAL CONCENTRATION Layer  68
         0    35.000(10E12.4)                   -1     INITIAL CONCENTRATION Layer  69
         0    35.000(10E12.4)                   -1     INITIAL CONCENTRATION Layer  70
         0    35.000(10E12.4)                   -1     INITIAL CONCENTRATION Layer  71
         0    35.000(10E12.4)                   -1     INITIAL CONCENTRATION Layer  72
         0    35.000(10E12.4)                   -1     INITIAL CONCENTRATION Layer  73
         0    35.000(10E12.4)                   -1     INITIAL CONCENTRATION Layer  74
         0    35.000(10E12.4)                   -1     INITIAL CONCENTRATION Layer  75
         0    35.000(10E12.4)                   -1     INITIAL CONCENTRATION Layer  76
         0    35.000(10E12.4)                   -1     INITIAL CONCENTRATION Layer  77
         0    35.000(10E12.4)                   -1     INITIAL CONCENTRATION Layer  78
         0    35.000(10E12.4)                   -1     INITIAL CONCENTRATION Layer  79
         0    35.000(10E12.4)                   -1     INITIAL CONCENTRATION Layer  80
         0    35.000(10E12.4)                   -1     INITIAL CONCENTRATION Layer  81
         0    35.000(10E12.4)                   -1     INITIAL CONCENTRATION Layer  82
         0    35.000(10E12.4)                   -1     INITIAL CONCENTRATION Layer  83
         0    35.000(10E12.4)                   -1     INITIAL CONCENTRATION Layer  84
         0    35.000(10E12.4)                   -1     INITIAL CONCENTRATION Layer  85