         1         1         0         0  MT3DRHOFLG   MFNADVFD   NSWTCPL   IWTABLE
    0.0000    0.0000                      DENSEMIN DENSEMAX
 1000.0000    0.7000                      FIRSTDT
1.0000e-02
