# MODFLOW2000 Discretization File
 100  1  200  1  4  0
 0 0 0 0 0 0 0 0 0 0 0 0 0 0 0 0 0 0 0 0 0 0 0 0 0 0 0 0 0 0 0 0 0 0 0 0 0 0 0 0 0 0 0 0 0 0 0 0 0 0
 0 0 0 0 0 0 0 0 0 0 0 0 0 0 0 0 0 0 0 0 0 0 0 0 0 0 0 0 0 0 0 0 0 0 0 0 0 0 0 0 0 0 0 0 0 0 0 0 0 0
         0    10.000(10E12.4)                    0     DELTA-X or C
         0     1.000(10E12.4)                    0     DELTA-Y or R
         00.0000e+00(10e12.4)                   -1     TOP of Model
         0   -10.000(10e12.4)                   -1     BOTTOM of Layer   1
         0   -20.000(10e12.4)                   -1     BOTTOM of Layer   2
         0   -30.000(10e12.4)                   -1     BOTTOM of Layer   3
         0   -40.000(10e12.4)                   -1     BOTTOM of Layer   4
         0   -50.000(10e12.4)                   -1     BOTTOM of Layer   5
         0   -60.000(10e12.4)                   -1     BOTTOM of Layer   6
         0   -70.000(10e12.4)                   -1     BOTTOM of Layer   7
         0   -80.000(10e12.4)                   -1     BOTTOM of Layer   8
         0   -90.000(10e12.4)                   -1     BOTTOM of Layer   9
         0  -100.000(10e12.4)                   -1     BOTTOM of Layer  10
         0  -110.000(10e12.4)                   -1     BOTTOM of Layer  11
         0  -120.000(10e12.4)                   -1     BOTTOM of Layer  12
         0  -130.000(10e12.4)                   -1     BOTTOM of Layer  13
         0  -140.000(10e12.4)                   -1     BOTTOM of Layer  14
         0  -150.000(10e12.4)                   -1     BOTTOM of Layer  15
         0  -160.000(10e12.4)                   -1     BOTTOM of Layer  16
         0  -170.000(10e12.4)                   -1     BOTTOM of Layer  17
         0  -180.000(10e12.4)                   -1     BOTTOM of Layer  18
         0  -190.000(10e12.4)                   -1     BOTTOM of Layer  19
         0  -200.000(10e12.4)                   -1     BOTTOM of Layer  20
         0  -210.000(10e12.4)                   -1     BOTTOM of Layer  21
         0  -220.000(10e12.4)                   -1     BOTTOM of Layer  22
         0  -230.000(10e12.4)                   -1     BOTTOM of Layer  23
         0  -240.000(10e12.4)                   -1     BOTTOM of Layer  24
         0  -250.000(10e12.4)                   -1     BOTTOM of Layer  25
         0  -260.000(10e12.4)                   -1     BOTTOM of Layer  26
         0  -270.000(10e12.4)                   -1     BOTTOM of Layer  27
         0  -280.000(10e12.4)                   -1     BOTTOM of Layer  28
         0  -290.000(10e12.4)                   -1     BOTTOM of Layer  29
         0  -300.000(10e12.4)                   -1     BOTTOM of Layer  30
         0  -310.000(10e12.4)                   -1     BOTTOM of Layer  31
         0  -320.000(10e12.4)                   -1     BOTTOM of Layer  32
         0  -330.000(10e12.4)                   -1     BOTTOM of Layer  33
         0  -340.000(10e12.4)                   -1     BOTTOM of Layer  34
         0  -350.000(10e12.4)                   -1     BOTTOM of Layer  35
         0  -360.000(10e12.4)                   -1     BOTTOM of Layer  36
         0  -370.000(10e12.4)                   -1     BOTTOM of Layer  37
         0  -380.000(10e12.4)                   -1     BOTTOM of Layer  38
         0  -390.000(10e12.4)                   -1     BOTTOM of Layer  39
         0  -400.000(10e12.4)                   -1     BOTTOM of Layer  40
         0  -410.000(10e12.4)                   -1     BOTTOM of Layer  41
         0  -420.000(10e12.4)                   -1     BOTTOM of Layer  42
         0  -430.000(10e12.4)                   -1     BOTTOM of Layer  43
         0  -440.000(10e12.4)                   -1     BOTTOM of Layer  44
         0  -450.000(10e12.4)                   -1     BOTTOM of Layer  45
         0  -460.000(10e12.4)                   -1     BOTTOM of Layer  46
         0  -470.000(10e12.4)                   -1     BOTTOM of Layer  47
         0  -480.000(10e12.4)                   -1     BOTTOM of Layer  48
         0  -490.000(10e12.4)                   -1     BOTTOM of Layer  49
         0  -500.000(10e12.4)                   -1     BOTTOM of Layer  50
         0  -510.000(10e12.4)                   -1     BOTTOM of Layer  51
         0  -520.000(10e12.4)                   -1     BOTTOM of Layer  52
         0  -530.000(10e12.4)                   -1     BOTTOM of Layer  53
         0  -540.000(10e12.4)                   -1     BOTTOM of Layer  54
         0  -550.000(10e12.4)                   -1     BOTTOM of Layer  55
         0  -560.000(10e12.4)                   -1     BOTTOM of Layer  56
         0  -570.000(10e12.4)                   -1     BOTTOM of Layer  57
         0  -580.000(10e12.4)                   -1     BOTTOM of Layer  58
         0  -590.000(10e12.4)                   -1     BOTTOM of Layer  59
         0  -600.000(10e12.4)                   -1     BOTTOM of Layer  60
         0  -610.000(10e12.4)                   -1     BOTTOM of Layer  61
         0  -620.000(10e12.4)                   -1     BOTTOM of Layer  62
         0  -630.000(10e12.4)                   -1     BOTTOM of Layer  63
         0  -640.000(10e12.4)                   -1     BOTTOM of Layer  64
         0  -650.000(10e12.4)                   -1     BOTTOM of Layer  65
         0  -660.000(10e12.4)                   -1     BOTTOM of Layer  66
         0  -670.000(10e12.4)                   -1     BOTTOM of Layer  67
         0  -680.000(10e12.4)                   -1     BOTTOM of Layer  68
         0  -690.000(10e12.4)                   -1     BOTTOM of Layer  69
         0  -700.000(10e12.4)                   -1     BOTTOM of Layer  70
         0  -710.000(10e12.4)                   -1     BOTTOM of Layer  71
         0  -720.000(10e12.4)                   -1     BOTTOM of Layer  72
         0  -730.000(10e12.4)                   -1     BOTTOM of Layer  73
         0  -740.000(10e12.4)                   -1     BOTTOM of Layer  74
         0  -750.000(10e12.4)                   -1     BOTTOM of Layer  75
         0  -760.000(10e12.4)                   -1     BOTTOM of Layer  76
         0  -770.000(10e12.4)                   -1     BOTTOM of Layer  77
         0  -780.000(10e12.4)                   -1     BOTTOM of Layer  78
         0  -790.000(10e12.4)                   -1     BOTTOM of Layer  79
         0  -800.000(10e12.4)                   -1     BOTTOM of Layer  80
         0  -810.000(10e12.4)                   -1     BOTTOM of Layer  81
         0  -820.000(10e12.4)                   -1     BOTTOM of Layer  82
         0  -830.000(10e12.4)                   -1     BOTTOM of Layer  83
         0  -840.000(10e12.4)                   -1     BOTTOM of Layer  84
         0  -850.000(10e12.4)                   -1     BOTTOM of Layer  85
         0  -860.000(10e12.4)                   -1     BOTTOM of Layer  86
         0  -870.000(10e12.4)                   -1     BOTTOM of Layer  87
         0  -880.000(10e12.4)                   -1     BOTTOM of Layer  88
         0  -890.000(10e12.4)                   -1     BOTTOM of Layer  89
         0  -900.000(10e12.4)                   -1     BOTTOM of Layer  90
         0  -910.000(10e12.4)                   -1     BOTTOM of Layer  91
         0  -920.000(10e12.4)                   -1     BOTTOM of Layer  92
         0  -930.000(10e12.4)                   -1     BOTTOM of Layer  93
         0  -940.000(10e12.4)                   -1     BOTTOM of Layer  94
         0  -950.000(10e12.4)                   -1     BOTTOM of Layer  95
         0  -960.000(10e12.4)                   -1     BOTTOM of Layer  96
         0  -970.000(10e12.4)                   -1     BOTTOM of Layer  97
         0  -980.000(10e12.4)                   -1     BOTTOM of Layer  98
         0  -990.000(10e12.4)                   -1     BOTTOM of Layer  99
         0 -1000.000(10e12.4)                   -1     BOTTOM of Layer 100
  200000.000000 40  1.000000  TR
