# Name file for MODFLOW-2005, generated by Flopy.
#xul:0, yul:10000, rotation:0, proj4_str:EPSG:4326 ,start_datetime:1/1/1970
LIST           2 freyberg.list
DIS           11 freyberg.dis 
BAS6          13 freyberg.bas 
OC            14 freyberg.oc 
DATA(BINARY)  51 freyberg.hds REPLACE
DATA(BINARY)  52 freyberg.ddn REPLACE
DATA(BINARY)  53 freyberg.cbc REPLACE
LPF           15 freyberg.lpf 
RIV           18 freyberg.riv 
RCH           19 freyberg.rch 
PCG           27 freyberg.pcg 
