# RCH for MODFLOW, generated by Flopy.
         3        53
         1        -1 # Stress period 1
INTERNAL               1     (FREE) -1 #rech_1                        
   1.600000E-09   1.600000E-09   1.600000E-09   1.600000E-09   1.600000E-09   1.600000E-09   1.600000E-09   1.600000E-09   1.600000E-09   1.600000E-09   1.600000E-09   1.600000E-09   1.600000E-09   1.600000E-09   1.600000E-09   1.600000E-09   1.600000E-09   1.600000E-09   1.600000E-09   1.600000E-09
   1.600000E-09   1.600000E-09   1.600000E-09   1.600000E-09   1.600000E-09   1.600000E-09   1.600000E-09   1.600000E-09   1.600000E-09   1.600000E-09   1.600000E-09   1.600000E-09   1.600000E-09   1.600000E-09   1.600000E-09   1.600000E-09   1.600000E-09   1.600000E-09   1.600000E-09   1.600000E-09
   1.600000E-09   1.600000E-09   1.600000E-09   1.600000E-09   1.600000E-09   1.600000E-09   1.600000E-09   1.600000E-09   1.600000E-09   1.600000E-09   1.600000E-09   1.600000E-09   1.600000E-09   1.600000E-09   1.600000E-09   1.600000E-09   1.600000E-09   1.600000E-09   1.600000E-09   1.600000E-09
   1.600000E-09   1.600000E-09   1.600000E-09   1.600000E-09   1.600000E-09   1.600000E-09   1.600000E-09   1.600000E-09   1.600000E-09   1.600000E-09   1.600000E-09   1.600000E-09   1.600000E-09   1.600000E-09   1.600000E-09   1.600000E-09   1.600000E-09   1.600000E-09   1.600000E-09   1.600000E-09
   1.600000E-09   1.600000E-09   1.600000E-09   1.600000E-09   1.600000E-09   1.600000E-09   1.600000E-09   1.600000E-09   1.600000E-09   1.600000E-09   1.600000E-09   1.600000E-09   1.600000E-09   1.600000E-09   1.600000E-09   1.600000E-09   1.600000E-09   1.600000E-09   1.600000E-09   1.600000E-09
   1.600000E-09   1.600000E-09   1.600000E-09   1.600000E-09   1.600000E-09   1.600000E-09   1.600000E-09   1.600000E-09   1.600000E-09   1.600000E-09   1.600000E-09   1.600000E-09   1.600000E-09   1.600000E-09   1.600000E-09   1.600000E-09   1.600000E-09   1.600000E-09   1.600000E-09   1.600000E-09
   1.600000E-09   1.600000E-09   1.600000E-09   1.600000E-09   1.600000E-09   1.600000E-09   1.600000E-09   1.600000E-09   1.600000E-09   1.600000E-09   1.600000E-09   1.600000E-09   1.600000E-09   1.600000E-09   1.600000E-09   1.600000E-09   1.600000E-09   1.600000E-09   1.600000E-09   1.600000E-09
   1.600000E-09   1.600000E-09   1.600000E-09   1.600000E-09   1.600000E-09   1.600000E-09   1.600000E-09   1.600000E-09   1.600000E-09   1.600000E-09   1.600000E-09   1.600000E-09   1.600000E-09   1.600000E-09   1.600000E-09   1.600000E-09   1.600000E-09   1.600000E-09   1.600000E-09   1.600000E-09
   1.600000E-09   1.600000E-09   1.600000E-09   1.600000E-09   1.600000E-09   1.600000E-09   1.600000E-09   1.600000E-09   1.600000E-09   1.600000E-09   1.600000E-09   1.600000E-09   1.600000E-09   1.600000E-09   1.600000E-09   1.600000E-09   1.600000E-09   1.600000E-09   1.600000E-09   1.600000E-09
   1.600000E-09   1.600000E-09   1.600000E-09   1.600000E-09   1.600000E-09   1.600000E-09   1.600000E-09   1.600000E-09   1.600000E-09   1.600000E-09   1.600000E-09   1.600000E-09   1.600000E-09   1.600000E-09   1.600000E-09   1.600000E-09   1.600000E-09   1.600000E-09   1.600000E-09   1.600000E-09
   1.600000E-09   1.600000E-09   1.600000E-09   1.600000E-09   1.600000E-09   1.600000E-09   1.600000E-09   1.600000E-09   1.600000E-09   1.600000E-09   1.600000E-09   1.600000E-09   1.600000E-09   1.600000E-09   1.600000E-09   1.600000E-09   1.600000E-09   1.600000E-09   1.600000E-09   1.600000E-09
   1.600000E-09   1.600000E-09   1.600000E-09   1.600000E-09   1.600000E-09   1.600000E-09   1.600000E-09   1.600000E-09   1.600000E-09   1.600000E-09   1.600000E-09   1.600000E-09   1.600000E-09   1.600000E-09   1.600000E-09   1.600000E-09   1.600000E-09   1.600000E-09   1.600000E-09   1.600000E-09
   1.600000E-09   1.600000E-09   1.600000E-09   1.600000E-09   1.600000E-09   1.600000E-09   1.600000E-09   1.600000E-09   1.600000E-09   1.600000E-09   1.600000E-09   1.600000E-09   1.600000E-09   1.600000E-09   1.600000E-09   1.600000E-09   1.600000E-09   1.600000E-09   1.600000E-09   1.600000E-09
   1.600000E-09   1.600000E-09   1.600000E-09   1.600000E-09   1.600000E-09   1.600000E-09   1.600000E-09   1.600000E-09   1.600000E-09   1.600000E-09   1.600000E-09   1.600000E-09   1.600000E-09   1.600000E-09   1.600000E-09   1.600000E-09   1.600000E-09   1.600000E-09   1.600000E-09   1.600000E-09
   1.600000E-09   1.600000E-09   1.600000E-09   1.600000E-09   1.600000E-09   1.600000E-09   1.600000E-09   1.600000E-09   1.600000E-09   1.600000E-09   1.600000E-09   1.600000E-09   1.600000E-09   1.600000E-09   1.600000E-09   1.600000E-09   1.600000E-09   1.600000E-09   1.600000E-09   1.600000E-09
   1.600000E-09   1.600000E-09   1.600000E-09   1.600000E-09   1.600000E-09   1.600000E-09   1.600000E-09   1.600000E-09   1.600000E-09   1.600000E-09   1.600000E-09   1.600000E-09   1.600000E-09   1.600000E-09   1.600000E-09   1.600000E-09   1.600000E-09   1.600000E-09   1.600000E-09   1.600000E-09
   1.600000E-09   1.600000E-09   1.600000E-09   1.600000E-09   1.600000E-09   1.600000E-09   1.600000E-09   1.600000E-09   1.600000E-09   1.600000E-09   1.600000E-09   1.600000E-09   1.600000E-09   1.600000E-09   1.600000E-09   1.600000E-09   1.600000E-09   1.600000E-09   1.600000E-09   1.600000E-09
   1.600000E-09   1.600000E-09   1.600000E-09   1.600000E-09   1.600000E-09   1.600000E-09   1.600000E-09   1.600000E-09   1.600000E-09   1.600000E-09   1.600000E-09   1.600000E-09   1.600000E-09   1.600000E-09   1.600000E-09   1.600000E-09   1.600000E-09   1.600000E-09   1.600000E-09   1.600000E-09
   1.600000E-09   1.600000E-09   1.600000E-09   1.600000E-09   1.600000E-09   1.600000E-09   1.600000E-09   1.600000E-09   1.600000E-09   1.600000E-09   1.600000E-09   1.600000E-09   1.600000E-09   1.600000E-09   1.600000E-09   1.600000E-09   1.600000E-09   1.600000E-09   1.600000E-09   1.600000E-09
   1.600000E-09   1.600000E-09   1.600000E-09   1.600000E-09   1.600000E-09   1.600000E-09   1.600000E-09   1.600000E-09   1.600000E-09   1.600000E-09   1.600000E-09   1.600000E-09   1.600000E-09   1.600000E-09   1.600000E-09   1.600000E-09   1.600000E-09   1.600000E-09   1.600000E-09   1.600000E-09
   1.600000E-09   1.600000E-09   1.600000E-09   1.600000E-09   1.600000E-09   1.600000E-09   1.600000E-09   1.600000E-09   1.600000E-09   1.600000E-09   1.600000E-09   1.600000E-09   1.600000E-09   1.600000E-09   1.600000E-09   1.600000E-09   1.600000E-09   1.600000E-09   1.600000E-09   1.600000E-09
   1.600000E-09   1.600000E-09   1.600000E-09   1.600000E-09   1.600000E-09   1.600000E-09   1.600000E-09   1.600000E-09   1.600000E-09   1.600000E-09   1.600000E-09   1.600000E-09   1.600000E-09   1.600000E-09   1.600000E-09   1.600000E-09   1.600000E-09   1.600000E-09   1.600000E-09   1.600000E-09
   1.600000E-09   1.600000E-09   1.600000E-09   1.600000E-09   1.600000E-09   1.600000E-09   1.600000E-09   1.600000E-09   1.600000E-09   1.600000E-09   1.600000E-09   1.600000E-09   1.600000E-09   1.600000E-09   1.600000E-09   1.600000E-09   1.600000E-09   1.600000E-09   1.600000E-09   1.600000E-09
   1.600000E-09   1.600000E-09   1.600000E-09   1.600000E-09   1.600000E-09   1.600000E-09   1.600000E-09   1.600000E-09   1.600000E-09   1.600000E-09   1.600000E-09   1.600000E-09   1.600000E-09   1.600000E-09   1.600000E-09   1.600000E-09   1.600000E-09   1.600000E-09   1.600000E-09   1.600000E-09
   1.600000E-09   1.600000E-09   1.600000E-09   1.600000E-09   1.600000E-09   1.600000E-09   1.600000E-09   1.600000E-09   1.600000E-09   1.600000E-09   1.600000E-09   1.600000E-09   1.600000E-09   1.600000E-09   1.600000E-09   1.600000E-09   1.600000E-09   1.600000E-09   1.600000E-09   1.600000E-09
   1.600000E-09   1.600000E-09   1.600000E-09   1.600000E-09   1.600000E-09   1.600000E-09   1.600000E-09   1.600000E-09   1.600000E-09   1.600000E-09   1.600000E-09   1.600000E-09   1.600000E-09   1.600000E-09   1.600000E-09   1.600000E-09   1.600000E-09   1.600000E-09   1.600000E-09   1.600000E-09
   1.600000E-09   1.600000E-09   1.600000E-09   1.600000E-09   1.600000E-09   1.600000E-09   1.600000E-09   1.600000E-09   1.600000E-09   1.600000E-09   1.600000E-09   1.600000E-09   1.600000E-09   1.600000E-09   1.600000E-09   1.600000E-09   1.600000E-09   1.600000E-09   1.600000E-09   1.600000E-09
   1.600000E-09   1.600000E-09   1.600000E-09   1.600000E-09   1.600000E-09   1.600000E-09   1.600000E-09   1.600000E-09   1.600000E-09   1.600000E-09   1.600000E-09   1.600000E-09   1.600000E-09   1.600000E-09   1.600000E-09   1.600000E-09   1.600000E-09   1.600000E-09   1.600000E-09   1.600000E-09
   1.600000E-09   1.600000E-09   1.600000E-09   1.600000E-09   1.600000E-09   1.600000E-09   1.600000E-09   1.600000E-09   1.600000E-09   1.600000E-09   1.600000E-09   1.600000E-09   1.600000E-09   1.600000E-09   1.600000E-09   1.600000E-09   1.600000E-09   1.600000E-09   1.600000E-09   1.600000E-09
   1.600000E-09   1.600000E-09   1.600000E-09   1.600000E-09   1.600000E-09   1.600000E-09   1.600000E-09   1.600000E-09   1.600000E-09   1.600000E-09   1.600000E-09   1.600000E-09   1.600000E-09   1.600000E-09   1.600000E-09   1.600000E-09   1.600000E-09   1.600000E-09   1.600000E-09   1.600000E-09
   1.600000E-09   1.600000E-09   1.600000E-09   1.600000E-09   1.600000E-09   1.600000E-09   1.600000E-09   1.600000E-09   1.600000E-09   1.600000E-09   1.600000E-09   1.600000E-09   1.600000E-09   1.600000E-09   1.600000E-09   1.600000E-09   1.600000E-09   1.600000E-09   1.600000E-09   1.600000E-09
   1.600000E-09   1.600000E-09   1.600000E-09   1.600000E-09   1.600000E-09   1.600000E-09   1.600000E-09   1.600000E-09   1.600000E-09   1.600000E-09   1.600000E-09   1.600000E-09   1.600000E-09   1.600000E-09   1.600000E-09   1.600000E-09   1.600000E-09   1.600000E-09   1.600000E-09   1.600000E-09
   1.600000E-09   1.600000E-09   1.600000E-09   1.600000E-09   1.600000E-09   1.600000E-09   1.600000E-09   1.600000E-09   1.600000E-09   1.600000E-09   1.600000E-09   1.600000E-09   1.600000E-09   1.600000E-09   1.600000E-09   1.600000E-09   1.600000E-09   1.600000E-09   1.600000E-09   1.600000E-09
   1.600000E-09   1.600000E-09   1.600000E-09   1.600000E-09   1.600000E-09   1.600000E-09   1.600000E-09   1.600000E-09   1.600000E-09   1.600000E-09   1.600000E-09   1.600000E-09   1.600000E-09   1.600000E-09   1.600000E-09   1.600000E-09   1.600000E-09   1.600000E-09   1.600000E-09   1.600000E-09
   1.600000E-09   1.600000E-09   1.600000E-09   1.600000E-09   1.600000E-09   1.600000E-09   1.600000E-09   1.600000E-09   1.600000E-09   1.600000E-09   1.600000E-09   1.600000E-09   1.600000E-09   1.600000E-09   1.600000E-09   1.600000E-09   1.600000E-09   1.600000E-09   1.600000E-09   1.600000E-09
   1.600000E-09   1.600000E-09   1.600000E-09   1.600000E-09   1.600000E-09   1.600000E-09   1.600000E-09   1.600000E-09   1.600000E-09   1.600000E-09   1.600000E-09   1.600000E-09   1.600000E-09   1.600000E-09   1.600000E-09   1.600000E-09   1.600000E-09   1.600000E-09   1.600000E-09   1.600000E-09
   1.600000E-09   1.600000E-09   1.600000E-09   1.600000E-09   1.600000E-09   1.600000E-09   1.600000E-09   1.600000E-09   1.600000E-09   1.600000E-09   1.600000E-09   1.600000E-09   1.600000E-09   1.600000E-09   1.600000E-09   1.600000E-09   1.600000E-09   1.600000E-09   1.600000E-09   1.600000E-09
   1.600000E-09   1.600000E-09   1.600000E-09   1.600000E-09   1.600000E-09   1.600000E-09   1.600000E-09   1.600000E-09   1.600000E-09   1.600000E-09   1.600000E-09   1.600000E-09   1.600000E-09   1.600000E-09   1.600000E-09   1.600000E-09   1.600000E-09   1.600000E-09   1.600000E-09   1.600000E-09
   1.600000E-09   1.600000E-09   1.600000E-09   1.600000E-09   1.600000E-09   1.600000E-09   1.600000E-09   1.600000E-09   1.600000E-09   1.600000E-09   1.600000E-09   1.600000E-09   1.600000E-09   1.600000E-09   1.600000E-09   1.600000E-09   1.600000E-09   1.600000E-09   1.600000E-09   1.600000E-09
   1.600000E-09   1.600000E-09   1.600000E-09   1.600000E-09   1.600000E-09   1.600000E-09   1.600000E-09   1.600000E-09   1.600000E-09   1.600000E-09   1.600000E-09   1.600000E-09   1.600000E-09   1.600000E-09   1.600000E-09   1.600000E-09   1.600000E-09   1.600000E-09   1.600000E-09   1.600000E-09
