# PCG for MODFLOW, generated by Flopy.
100 25 1 0
1e-05 0.001 1.0 2 5 0 1.0 
