# File generated by Flopy version 3.5.0.dev0 on 10/30/2023 at 09:03:35.
BEGIN options
  PRINT_INPUT
  PRINT_FLOWS
END options

BEGIN dimensions
  MAXBOUND  4
END dimensions

BEGIN period  2
  3 3 6 -1.40000000E+04
  3 3 7 -8.00000000E+03
  3 4 6 -5.00000000E+03
  3 4 7 -3.00000000E+03
END period  2

