# File generated by Flopy version 3.5.0.dev0 on 10/30/2023 at 09:03:35.
BEGIN options
END options

BEGIN packages
  DIS6  csub_sub03a.dis  dis
  IC6  csub_sub03a.ic  ic
  NPF6  csub_sub03a.npf  npf
  STO6  csub_sub03a.sto  sto
  RCH6  csub_sub03a.rcha  rcha_0
  WEL6  csub_sub03a.wel  wel_0
  CHD6  csub_sub03a.chd  chd_0
  CSUB6  csub_sub03a.csub  csub
  OC6  csub_sub03a.oc  oc
END packages

