# File generated by Flopy version 3.5.0.dev0 on 10/30/2023 at 09:03:35.
BEGIN options
  DIGITS  10
  PRINT_INPUT
END options

BEGIN continuous  FILEOUT  csub_obs.csv
  tcomp1  interbed-compaction  01_05_05
  tcomp2  interbed-compaction  02_05_05
  tcomp3  interbed-compaction  03_05_05
END continuous  FILEOUT  csub_obs.csv

