MODPATH_ENDPOINT_FILE 6 0                                                       
 1        695        695        695   0.0000000E+00
         0          0        695          0          0          0
         1
rch             
END HEADER
          1     1  2   0.0000000E+00   0.3728796E+10  1    1    1    1 6          1   0.5000000E+00   0.5000000E+00   0.1000000E+01   0.1250000E+03   0.9875000E+04   0.2726028E+02  1    1    1   15 1          1   0.0000000E+00   0.4611052E+00   0.9990000E+00   0.3500000E+04   0.9865276E+04   0.2009831E+02 rch
          2     1  2   0.0000000E+00   0.2809669E+10  1    1    1    2 6          1   0.5000000E+00   0.5000000E+00   0.1000000E+01   0.3750000E+03   0.9875000E+04   0.2715272E+02  1    1    1   15 1          1   0.0000000E+00   0.2459313E+00   0.9990000E+00   0.3500000E+04   0.9811482E+04   0.2009831E+02 rch
          3     1  2   0.0000000E+00   0.2431805E+10  1    1    1    3 6          1   0.5000000E+00   0.5000000E+00   0.1000000E+01   0.6250000E+03   0.9875000E+04   0.2691370E+02  1    1    1   15 1          1   0.0000000E+00   0.1474556E+00   0.9990000E+00   0.3500000E+04   0.9786864E+04   0.2009831E+02 rch
          4     1  2   0.0000000E+00   0.2144463E+10  1    1    1    4 6          1   0.5000000E+00   0.5000000E+00   0.1000000E+01   0.8750000E+03   0.9875000E+04   0.2656712E+02  1    1    1   15 1          1   0.0000000E+00   0.1060570E+00   0.9990000E+00   0.3500000E+04   0.9776515E+04   0.2009831E+02 rch
          5     1  2   0.0000000E+00   0.1875191E+10  1    1    1    5 6          1   0.5000000E+00   0.5000000E+00   0.1000000E+01   0.1125000E+04   0.9875000E+04   0.2615271E+02  1    1    1   15 1          1   0.0000000E+00   0.5145398E-01   0.9990000E+00   0.3500000E+04   0.9762863E+04   0.2009831E+02 rch
          6     1  2   0.0000000E+00   0.1656124E+10  1    1    1    6 6          1   0.5000000E+00   0.5000000E+00   0.1000000E+01   0.1375000E+04   0.9875000E+04   0.2565291E+02  1    1    2   15 1          1   0.0000000E+00   0.9908593E+00   0.9990000E+00   0.3500000E+04   0.9747715E+04   0.1988262E+02 rch
          7     1  2   0.0000000E+00   0.1436744E+10  1    1    1    7 6          1   0.5000000E+00   0.5000000E+00   0.1000000E+01   0.1625000E+04   0.9875000E+04   0.2512249E+02  1    1    2   15 1          1   0.0000000E+00   0.9677311E+00   0.9990000E+00   0.3500000E+04   0.9741933E+04   0.1988262E+02 rch
          8     1  2   0.0000000E+00   0.1224069E+10  1    1    1    8 6          1   0.5000000E+00   0.5000000E+00   0.1000000E+01   0.1875000E+04   0.9875000E+04   0.2458152E+02  1    1    2   15 1          1   0.0000000E+00   0.9702653E+00   0.9990000E+00   0.3500000E+04   0.9742566E+04   0.1988262E+02 rch
          9     1  2   0.0000000E+00   0.1044417E+10  1    1    1    9 6          1   0.5000000E+00   0.5000000E+00   0.1000000E+01   0.2125000E+04   0.9875000E+04   0.2399465E+02  1    1    2   15 1          1   0.0000000E+00   0.9942811E+00   0.9990000E+00   0.3500000E+04   0.9748570E+04   0.1988262E+02 rch
         10     1  2   0.0000000E+00   0.8591430E+09  1    1    1   10 6          1   0.5000000E+00   0.5000000E+00   0.1000000E+01   0.2375000E+04   0.9875000E+04   0.2339043E+02  1    1    1   15 1          1   0.0000000E+00   0.6589731E-01   0.9990000E+00   0.3500000E+04   0.9766475E+04   0.2009831E+02 rch
         11     1  2   0.0000000E+00   0.6639257E+09  1    1    1   11 6          1   0.5000000E+00   0.5000000E+00   0.1000000E+01   0.2625000E+04   0.9875000E+04   0.2273594E+02  1    1    1   15 1          1   0.0000000E+00   0.1671631E+00   0.9990000E+00   0.3500000E+04   0.9791791E+04   0.2009831E+02 rch
         12     1  2   0.0000000E+00   0.4646896E+09  1    1    1   12 6          1   0.5000000E+00   0.5000000E+00   0.1000000E+01   0.2875000E+04   0.9875000E+04   0.2206807E+02  1    1    1   15 1          1   0.0000000E+00   0.2633077E+00   0.9990000E+00   0.3500000E+04   0.9815827E+04   0.2009831E+02 rch
         13     1  2   0.0000000E+00   0.2748637E+09  1    1    1   13 6          1   0.5000000E+00   0.5000000E+00   0.1000000E+01   0.3125000E+04   0.9875000E+04   0.2135837E+02  1    1    1   15 1          1   0.0000000E+00   0.3465974E+00   0.9990000E+00   0.3500000E+04   0.9836649E+04   0.2009831E+02 rch
         14     1  2   0.0000000E+00   0.9459604E+08  1    1    1   14 6          1   0.5000000E+00   0.5000000E+00   0.1000000E+01   0.3375000E+04   0.9875000E+04   0.2067336E+02  1    1    1   15 1          1   0.0000000E+00   0.4433941E+00   0.9990000E+00   0.3500000E+04   0.9860849E+04   0.2009831E+02 rch
         15     1  2   0.0000000E+00   0.0000000E+00  1    1    1   15 6          1   0.5000000E+00   0.5000000E+00   0.1000000E+01   0.3625000E+04   0.9875000E+04   0.2011218E+02  1    1    1   15 6          1   0.5000000E+00   0.5000000E+00   0.1000000E+01   0.3625000E+04   0.9875000E+04   0.2011218E+02 rch
         16     1  2   0.0000000E+00   0.1350231E+10  1    1    1   16 6          1   0.5000000E+00   0.5000000E+00   0.1000000E+01   0.3875000E+04   0.9875000E+04   0.2009318E+02  1    1    2   15 2          1   0.1000000E+01   0.2590473E+00   0.9990000E+00   0.3750000E+04   0.9564762E+04   0.1988262E+02 rch
         17     1  2   0.0000000E+00   0.2686787E+10  1    1    1   17 6          1   0.5000000E+00   0.5000000E+00   0.1000000E+01   0.4125000E+04   0.9875000E+04   0.2012815E+02  1    1    3   15 2          1   0.1000000E+01   0.1230051E+00   0.9990000E+00   0.3750000E+04   0.9280751E+04   0.1966508E+02 rch
         18     1  2   0.0000000E+00   0.4819805E+10  1    1    1   18 6          1   0.5000000E+00   0.5000000E+00   0.1000000E+01   0.4375000E+04   0.9875000E+04   0.2015877E+02  1    1    5   15 2          1   0.1000000E+01   0.4502022E+00   0.9990000E+00   0.3750000E+04   0.8862551E+04   0.1920707E+02 rch
         19     1  2   0.0000000E+00   0.5947604E+10  1    1    1   19 6          1   0.5000000E+00   0.5000000E+00   0.1000000E+01   0.4625000E+04   0.9875000E+04   0.2018290E+02  1    1    9   16 4          1   0.6452098E+00   0.1000000E+01   0.9990000E+00   0.3911302E+04   0.8000000E+04   0.1646730E+02 rch
         20     1  2   0.0000000E+00   0.7092202E+10  1    1    1   20 6          1   0.5000000E+00   0.5000000E+00   0.1000000E+01   0.4875000E+04   0.9875000E+04   0.2020178E+02  1    1    9   16 2          1   0.1000000E+01   0.7691195E+00   0.9990000E+00   0.4000000E+04   0.7942280E+04   0.1646730E+02 rch
         21     1  2   0.0000000E+00   0.3663936E+10  1    1    2    1 6          1   0.5000000E+00   0.5000000E+00   0.1000000E+01   0.1250000E+03   0.9625000E+04   0.2729344E+02  1    1    2   15 1          1   0.0000000E+00   0.5056663E+00   0.9990000E+00   0.3500000E+04   0.9626417E+04   0.1988262E+02 rch
         22     1  2   0.0000000E+00   0.2897811E+10  1    1    2    2 6          1   0.5000000E+00   0.5000000E+00   0.1000000E+01   0.3750000E+03   0.9625000E+04   0.2718564E+02  1    1    2   15 1          1   0.0000000E+00   0.2268402E-02   0.9990000E+00   0.3500000E+04   0.9500567E+04   0.1988262E+02 rch
         23     1  2   0.0000000E+00   0.2470352E+10  1    1    2    3 6          1   0.5000000E+00   0.5000000E+00   0.1000000E+01   0.6250000E+03   0.9625000E+04   0.2693553E+02  1    1    3   15 1          1   0.0000000E+00   0.7757551E+00   0.9990000E+00   0.3500000E+04   0.9443938E+04   0.1966508E+02 rch
         24     1  2   0.0000000E+00   0.2143572E+10  1    1    2    4 6          1   0.5000000E+00   0.5000000E+00   0.1000000E+01   0.8750000E+03   0.9625000E+04   0.2657893E+02  1    1    3   15 1          1   0.0000000E+00   0.6472557E+00   0.9990000E+00   0.3500000E+04   0.9411813E+04   0.1966508E+02 rch
         25     1  2   0.0000000E+00   0.1858113E+10  1    1    2    5 6          1   0.5000000E+00   0.5000000E+00   0.1000000E+01   0.1125000E+04   0.9625000E+04   0.2618856E+02  1    1    3   15 1          1   0.0000000E+00   0.5090925E+00   0.9990000E+00   0.3500000E+04   0.9377273E+04   0.1966508E+02 rch
         26     1  2   0.0000000E+00   0.1632494E+10  1    1    2    6 6          1   0.5000000E+00   0.5000000E+00   0.1000000E+01   0.1375000E+04   0.9625000E+04   0.2568030E+02  1    1    3   15 1          1   0.0000000E+00   0.3960058E+00   0.9990000E+00   0.3500000E+04   0.9349001E+04   0.1966508E+02 rch
         27     1  2   0.0000000E+00   0.1423721E+10  1    1    2    7 6          1   0.5000000E+00   0.5000000E+00   0.1000000E+01   0.1625000E+04   0.9625000E+04   0.2512693E+02  1    1    3   15 1          1   0.0000000E+00   0.3490303E+00   0.9990000E+00   0.3500000E+04   0.9337258E+04   0.1966508E+02 rch
         28     1  2   0.0000000E+00   0.1216330E+10  1    1    2    8 6          1   0.5000000E+00   0.5000000E+00   0.1000000E+01   0.1875000E+04   0.9625000E+04   0.2457332E+02  1    1    3   15 1          1   0.0000000E+00   0.3588930E+00   0.9990000E+00   0.3500000E+04   0.9339724E+04   0.1966508E+02 rch
         29     1  2   0.0000000E+00   0.1035795E+10  1    1    2    9 6          1   0.5000000E+00   0.5000000E+00   0.1000000E+01   0.2125000E+04   0.9625000E+04   0.2396797E+02  1    1    3   15 1          1   0.0000000E+00   0.4240573E+00   0.9990000E+00   0.3500000E+04   0.9356015E+04   0.1966508E+02 rch
         30     1  2   0.0000000E+00   0.8485417E+09  1    1    2   10 6          1   0.5000000E+00   0.5000000E+00   0.1000000E+01   0.2375000E+04   0.9625000E+04   0.2332254E+02  1    1    3   15 1          1   0.0000000E+00   0.5630097E+00   0.9990000E+00   0.3500000E+04   0.9390752E+04   0.1966508E+02 rch
         31     1  2   0.0000000E+00   0.6431847E+09  1    1    2   11 6          1   0.5000000E+00   0.5000000E+00   0.1000000E+01   0.2625000E+04   0.9625000E+04   0.2265598E+02  1    1    3   15 1          1   0.0000000E+00   0.7622660E+00   0.9990000E+00   0.3500000E+04   0.9440566E+04   0.1966508E+02 rch
         32     1  2   0.0000000E+00   0.4469516E+09  1    1    2   12 6          1   0.5000000E+00   0.5000000E+00   0.1000000E+01   0.2875000E+04   0.9625000E+04   0.2199102E+02  1    1    3   15 1          1   0.0000000E+00   0.9770457E+00   0.9990000E+00   0.3500000E+04   0.9494262E+04   0.1966508E+02 rch
         33     1  2   0.0000000E+00   0.2654021E+09  1    1    2   13 6          1   0.5000000E+00   0.5000000E+00   0.1000000E+01   0.3125000E+04   0.9625000E+04   0.2127170E+02  1    1    2   15 1          1   0.0000000E+00   0.1790020E+00   0.9990000E+00   0.3500000E+04   0.9544750E+04   0.1988262E+02 rch
         34     1  2   0.0000000E+00   0.8923348E+08  1    1    2   14 6          1   0.5000000E+00   0.5000000E+00   0.1000000E+01   0.3375000E+04   0.9625000E+04   0.2055194E+02  1    1    2   15 1          1   0.0000000E+00   0.3884396E+00   0.9990000E+00   0.3500000E+04   0.9597110E+04   0.1988262E+02 rch
         35     1  2   0.0000000E+00   0.0000000E+00  1    1    2   15 6          1   0.5000000E+00   0.5000000E+00   0.1000000E+01   0.3625000E+04   0.9625000E+04   0.1989680E+02  1    1    2   15 6          1   0.5000000E+00   0.5000000E+00   0.1000000E+01   0.3625000E+04   0.9625000E+04   0.1989680E+02 rch
         36     1  2   0.0000000E+00   0.6240072E+09  1    1    2   16 6          1   0.5000000E+00   0.5000000E+00   0.1000000E+01   0.3875000E+04   0.9625000E+04   0.1997617E+02  1    1    3   15 2          1   0.1000000E+01   0.6729001E+00   0.9990000E+00   0.3750000E+04   0.9418225E+04   0.1966508E+02 rch
         37     1  2   0.0000000E+00   0.1916915E+10  1    1    2   17 6          1   0.5000000E+00   0.5000000E+00   0.1000000E+01   0.4125000E+04   0.9625000E+04   0.2005250E+02  1    1    4   15 2          1   0.1000000E+01   0.1427336E+00   0.9990000E+00   0.3750000E+04   0.9035684E+04   0.1943447E+02 rch
         38     1  2   0.0000000E+00   0.3542033E+10  1    1    2   18 6          1   0.5000000E+00   0.5000000E+00   0.1000000E+01   0.4375000E+04   0.9625000E+04   0.2010168E+02  1    1    9   16 4          1   0.4456608E+00   0.1000000E+01   0.9990000E+00   0.3861415E+04   0.8000000E+04   0.1646730E+02 rch
         39     1  2   0.0000000E+00   0.3700790E+10  1    1    2   19 6          1   0.5000000E+00   0.5000000E+00   0.1000000E+01   0.4625000E+04   0.9625000E+04   0.2013318E+02  1    1    9   16 4          1   0.8661059E+00   0.1000000E+01   0.9990000E+00   0.3966526E+04   0.8000000E+04   0.1646730E+02 rch
         40     1  2   0.0000000E+00   0.4927590E+10  1    1    2   20 6          1   0.5000000E+00   0.5000000E+00   0.1000000E+01   0.4875000E+04   0.9625000E+04   0.2015474E+02  1    1    9   16 2          1   0.1000000E+01   0.5078552E+00   0.9990000E+00   0.4000000E+04   0.7876964E+04   0.1646730E+02 rch
         41     1  2   0.0000000E+00   0.3771878E+10  1    1    3    1 6          1   0.5000000E+00   0.5000000E+00   0.1000000E+01   0.1250000E+03   0.9375000E+04   0.2736055E+02  1    1    3   15 1          1   0.0000000E+00   0.6133403E+00   0.9990000E+00   0.3500000E+04   0.9403335E+04   0.1966508E+02 rch
         42     1  2   0.0000000E+00   0.2870641E+10  1    1    3    2 6          1   0.5000000E+00   0.5000000E+00   0.1000000E+01   0.3750000E+03   0.9375000E+04   0.2724383E+02  1    1    4   15 1          1   0.0000000E+00   0.8192748E+00   0.9990000E+00   0.3500000E+04   0.9204818E+04   0.1943447E+02 rch
         43     1  2   0.0000000E+00   0.2462039E+10  1    1    3    3 6          1   0.5000000E+00   0.5000000E+00   0.1000000E+01   0.6250000E+03   0.9375000E+04   0.2698496E+02  1    1    4   15 1          1   0.0000000E+00   0.5020372E+00   0.9990000E+00   0.3500000E+04   0.9125510E+04   0.1943447E+02 rch
         44     1  2   0.0000000E+00   0.2132956E+10  1    1    3    4 6          1   0.5000000E+00   0.5000000E+00   0.1000000E+01   0.8750000E+03   0.9375000E+04   0.2662456E+02  1    1    4   15 1          1   0.0000000E+00   0.2784146E+00   0.9990000E+00   0.3500000E+04   0.9069604E+04   0.1943447E+02 rch
         45     1  2   0.0000000E+00   0.1842748E+10  1    1    3    5 6          1   0.5000000E+00   0.5000000E+00   0.1000000E+01   0.1125000E+04   0.9375000E+04   0.2623810E+02  1    1    4   15 1          1   0.0000000E+00   0.7015320E-01   0.9990000E+00   0.3500000E+04   0.9017538E+04   0.1943447E+02 rch
         46     1  2   0.0000000E+00   0.1627453E+10  1    1    3    6 6          1   0.5000000E+00   0.5000000E+00   0.1000000E+01   0.1375000E+04   0.9375000E+04   0.2570957E+02  1    1    5   15 1          1   0.0000000E+00   0.9396048E+00   0.9990000E+00   0.3500000E+04   0.8984901E+04   0.1920707E+02 rch
         47     1  2   0.0000000E+00   0.1423003E+10  1    1    3    7 6          1   0.5000000E+00   0.5000000E+00   0.1000000E+01   0.1625000E+04   0.9375000E+04   0.2513271E+02  1    1    5   15 1          1   0.0000000E+00   0.8886212E+00   0.9990000E+00   0.3500000E+04   0.8972155E+04   0.1920707E+02 rch
         48     1  2   0.0000000E+00   0.1228499E+10  1    1    3    8 6          1   0.5000000E+00   0.5000000E+00   0.1000000E+01   0.1875000E+04   0.9375000E+04   0.2455657E+02  1    1    5   15 1          1   0.0000000E+00   0.9107062E+00   0.9990000E+00   0.3500000E+04   0.8977677E+04   0.1920707E+02 rch
         49     1  2   0.0000000E+00   0.1052704E+10  1    1    3    9 6          1   0.5000000E+00   0.5000000E+00   0.1000000E+01   0.2125000E+04   0.9375000E+04   0.2391856E+02  1    1    4   15 1          1   0.0000000E+00   0.1941501E-01   0.9990000E+00   0.3500000E+04   0.9004854E+04   0.1943447E+02 rch
         50     1  2   0.0000000E+00   0.8678212E+09  1    1    3   10 6          1   0.5000000E+00   0.5000000E+00   0.1000000E+01   0.2375000E+04   0.9375000E+04   0.2322199E+02  1    1    4   15 1          1   0.0000000E+00   0.2335121E+00   0.9990000E+00   0.3500000E+04   0.9058378E+04   0.1943447E+02 rch
         51     1  2   0.0000000E+00   0.6705836E+09  1    1    3   11 6          1   0.5000000E+00   0.5000000E+00   0.1000000E+01   0.2625000E+04   0.9375000E+04   0.2251379E+02  1    1    4   15 1          1   0.0000000E+00   0.5149193E+00   0.9990000E+00   0.3500000E+04   0.9128729E+04   0.1943447E+02 rch
         52     1  2   0.0000000E+00   0.4590826E+09  1    1    3   12 6          1   0.5000000E+00   0.5000000E+00   0.1000000E+01   0.2875000E+04   0.9375000E+04   0.2182772E+02  1    1    4   15 1          1   0.0000000E+00   0.8110750E+00   0.9990000E+00   0.3500000E+04   0.9202769E+04   0.1943447E+02 rch
         53     1  2   0.0000000E+00   0.2697643E+09  1    1    3   13 6          1   0.5000000E+00   0.5000000E+00   0.1000000E+01   0.3125000E+04   0.9375000E+04   0.2108854E+02  1    1    3   15 1          1   0.0000000E+00   0.7999298E-01   0.9990000E+00   0.3500000E+04   0.9269998E+04   0.1966508E+02 rch
         54     1  2   0.0000000E+00   0.8884336E+08  1    1    3   14 6          1   0.5000000E+00   0.5000000E+00   0.1000000E+01   0.3375000E+04   0.9375000E+04   0.2039087E+02  1    1    3   15 1          1   0.0000000E+00   0.3575978E+00   0.9990000E+00   0.3500000E+04   0.9339399E+04   0.1966508E+02 rch
         55     1  2   0.0000000E+00   0.0000000E+00  1    1    3   15 6          1   0.5000000E+00   0.5000000E+00   0.1000000E+01   0.3625000E+04   0.9375000E+04   0.1967759E+02  1    1    3   15 6          1   0.5000000E+00   0.5000000E+00   0.1000000E+01   0.3625000E+04   0.9375000E+04   0.1967759E+02 rch
         56     1  2   0.0000000E+00   0.4680724E+09  1    1    3   16 6          1   0.5000000E+00   0.5000000E+00   0.1000000E+01   0.3875000E+04   0.9375000E+04   0.1981551E+02  1    1    4   15 2          1   0.1000000E+01   0.7304288E+00   0.9990000E+00   0.3750000E+04   0.9182607E+04   0.1943447E+02 rch
         57     1  2   0.0000000E+00   0.1828714E+10  1    1    3   17 6          1   0.5000000E+00   0.5000000E+00   0.1000000E+01   0.4125000E+04   0.9375000E+04   0.1992050E+02  1    1    6   15 2          1   0.1000000E+01   0.9164197E+00   0.9990000E+00   0.3750000E+04   0.8729104E+04   0.1898584E+02 rch
         58     1  2   0.0000000E+00   0.2501297E+10  1    1    3   18 6          1   0.5000000E+00   0.5000000E+00   0.1000000E+01   0.4375000E+04   0.9375000E+04   0.1998701E+02  1    1    9   16 4          1   0.6087111E+00   0.1000000E+01   0.9990000E+00   0.3902178E+04   0.8000000E+04   0.1646730E+02 rch
         59     1  2   0.0000000E+00   0.2778370E+10  1    1    3   19 6          1   0.5000000E+00   0.5000000E+00   0.1000000E+01   0.4625000E+04   0.9375000E+04   0.2003241E+02  1    1    9   16 4          1   0.9934924E+00   0.1000000E+01   0.9990000E+00   0.3998373E+04   0.8000000E+04   0.1646730E+02 rch
         60     1  2   0.0000000E+00   0.3958886E+10  1    1    3   20 6          1   0.5000000E+00   0.5000000E+00   0.1000000E+01   0.4875000E+04   0.9375000E+04   0.2005650E+02  1    1    9   16 2          1   0.1000000E+01   0.3882143E+00   0.9990000E+00   0.4000000E+04   0.7847054E+04   0.1646730E+02 rch
         61     1  2   0.0000000E+00   0.3781563E+10  1    1    4    1 6          1   0.5000000E+00   0.5000000E+00   0.1000000E+01   0.1250000E+03   0.9125000E+04   0.2748454E+02  1    1    4   15 1          1   0.0000000E+00   0.8423182E+00   0.9990000E+00   0.3500000E+04   0.9210579E+04   0.1943447E+02 rch
         62     1  2   0.0000000E+00   0.2884160E+10  1    1    4    2 6          1   0.5000000E+00   0.5000000E+00   0.1000000E+01   0.3750000E+03   0.9125000E+04   0.2735288E+02  1    1    5   15 1          1   0.0000000E+00   0.8938428E+00   0.9990000E+00   0.3500000E+04   0.8973461E+04   0.1920707E+02 rch
         63     1  2   0.0000000E+00   0.2394658E+10  1    1    4    3 6          1   0.5000000E+00   0.5000000E+00   0.1000000E+01   0.6250000E+03   0.9125000E+04   0.2707340E+02  1    1    5   15 1          1   0.0000000E+00   0.4865664E+00   0.9990000E+00   0.3500000E+04   0.8871642E+04   0.1920707E+02 rch
         64     1  2   0.0000000E+00   0.2028031E+10  1    1    4    4 6          1   0.5000000E+00   0.5000000E+00   0.1000000E+01   0.8750000E+03   0.9125000E+04   0.2670811E+02  1    1    5   15 1          1   0.0000000E+00   0.1465361E+00   0.9990000E+00   0.3500000E+04   0.8786634E+04   0.1920707E+02 rch
         65     1  2   0.0000000E+00   0.1746737E+10  1    1    4    5 6          1   0.5000000E+00   0.5000000E+00   0.1000000E+01   0.1125000E+04   0.9125000E+04   0.2630889E+02  1    1    6   15 1          1   0.0000000E+00   0.8598807E+00   0.9990000E+00   0.3500000E+04   0.8714970E+04   0.1898584E+02 rch
         66     1  2   0.0000000E+00   0.1531977E+10  1    1    4    6 6          1   0.5000000E+00   0.5000000E+00   0.1000000E+01   0.1375000E+04   0.9125000E+04   0.2576759E+02  1    1    6   15 1          1   0.0000000E+00   0.6867678E+00   0.9990000E+00   0.3500000E+04   0.8671692E+04   0.1898584E+02 rch
         67     1  2   0.0000000E+00   0.1352892E+10  1    1    4    7 6          1   0.5000000E+00   0.5000000E+00   0.1000000E+01   0.1625000E+04   0.9125000E+04   0.2514092E+02  1    1    6   15 1          1   0.0000000E+00   0.5846321E+00   0.9990000E+00   0.3500000E+04   0.8646158E+04   0.1898584E+02 rch
         68     1  2   0.0000000E+00   0.1162931E+10  1    1    4    8 6          1   0.5000000E+00   0.5000000E+00   0.1000000E+01   0.1875000E+04   0.9125000E+04   0.2451797E+02  1    1    6   15 1          1   0.0000000E+00   0.6004115E+00   0.9990000E+00   0.3500000E+04   0.8650103E+04   0.1898584E+02 rch
         69     1  2   0.0000000E+00   0.1001529E+10  1    1    4    9 6          1   0.5000000E+00   0.5000000E+00   0.1000000E+01   0.2125000E+04   0.9125000E+04   0.2379268E+02  1    1    6   15 1          1   0.0000000E+00   0.7967587E+00   0.9990000E+00   0.3500000E+04   0.8699189E+04   0.1898584E+02 rch
         70     1  2   0.0000000E+00   0.8470187E+09  1    1    4   10 6          1   0.5000000E+00   0.5000000E+00   0.1000000E+01   0.2375000E+04   0.9125000E+04   0.2301251E+02  1    1    5   15 1          1   0.0000000E+00   0.1081359E+00   0.9990000E+00   0.3500000E+04   0.8777034E+04   0.1920707E+02 rch
         71     1  2   0.0000000E+00   0.6500300E+09  1    1    4   11 6          1   0.5000000E+00   0.5000000E+00   0.1000000E+01   0.2625000E+04   0.9125000E+04   0.2229407E+02  1    1    5   15 1          1   0.0000000E+00   0.4476985E+00   0.9990000E+00   0.3500000E+04   0.8861925E+04   0.1920707E+02 rch
         72     1  2   0.0000000E+00   0.4504651E+09  1    1    4   12 6          1   0.5000000E+00   0.5000000E+00   0.1000000E+01   0.2875000E+04   0.9125000E+04   0.2161286E+02  1    1    5   15 1          1   0.0000000E+00   0.7737085E+00   0.9990000E+00   0.3500000E+04   0.8943427E+04   0.1920707E+02 rch
         73     1  2   0.0000000E+00   0.2675315E+09  1    1    4   13 6          1   0.5000000E+00   0.5000000E+00   0.1000000E+01   0.3125000E+04   0.9125000E+04   0.2091334E+02  1    1    4   15 1          1   0.0000000E+00   0.5801849E-01   0.9990000E+00   0.3500000E+04   0.9014505E+04   0.1943447E+02 rch
         74     1  2   0.0000000E+00   0.8603789E+08  1    1    4   14 6          1   0.5000000E+00   0.5000000E+00   0.1000000E+01   0.3375000E+04   0.9125000E+04   0.2020460E+02  1    1    4   15 1          1   0.0000000E+00   0.3496104E+00   0.9990000E+00   0.3500000E+04   0.9087402E+04   0.1943447E+02 rch
         75     1  2   0.0000000E+00   0.0000000E+00  1    1    4   15 6          1   0.5000000E+00   0.5000000E+00   0.1000000E+01   0.3625000E+04   0.9125000E+04   0.1945073E+02  1    1    4   15 6          1   0.5000000E+00   0.5000000E+00   0.1000000E+01   0.3625000E+04   0.9125000E+04   0.1945073E+02 rch
         76     1  2   0.0000000E+00   0.5162058E+09  1    1    4   16 6          1   0.5000000E+00   0.5000000E+00   0.1000000E+01   0.3875000E+04   0.9125000E+04   0.1960537E+02  1    1    5   15 2          1   0.1000000E+01   0.7346162E+00   0.9990000E+00   0.3750000E+04   0.8933654E+04   0.1920707E+02 rch
         77     1  2   0.0000000E+00   0.1765454E+10  1    1    4   17 6          1   0.5000000E+00   0.5000000E+00   0.1000000E+01   0.4125000E+04   0.9125000E+04   0.1973255E+02  1    1    9   16 4          1   0.4219671E+00   0.1000000E+01   0.9990000E+00   0.3855492E+04   0.8000000E+04   0.1646730E+02 rch
         78     1  2   0.0000000E+00   0.1733347E+10  1    1    4   18 6          1   0.5000000E+00   0.5000000E+00   0.1000000E+01   0.4375000E+04   0.9125000E+04   0.1982797E+02  1    1    9   16 4          1   0.7382224E+00   0.1000000E+01   0.9990000E+00   0.3934556E+04   0.8000000E+04   0.1646730E+02 rch
         79     1  2   0.0000000E+00   0.2222543E+10  1    1    4   19 6          1   0.5000000E+00   0.5000000E+00   0.1000000E+01   0.4625000E+04   0.9125000E+04   0.1988099E+02  1    1    9   16 2          1   0.1000000E+01   0.8842165E+00   0.9990000E+00   0.4000000E+04   0.7971054E+04   0.1646730E+02 rch
         80     1  2   0.0000000E+00   0.3304133E+10  1    1    4   20 6          1   0.5000000E+00   0.5000000E+00   0.1000000E+01   0.4875000E+04   0.9125000E+04   0.1991168E+02  1    1    9   16 2          1   0.1000000E+01   0.3042003E+00   0.9990000E+00   0.4000000E+04   0.7826050E+04   0.1646730E+02 rch
         81     1  2   0.0000000E+00   0.3850452E+10  1    1    5    1 6          1   0.5000000E+00   0.5000000E+00   0.1000000E+01   0.1250000E+03   0.8875000E+04   0.2765147E+02  1    1    4   15 1          1   0.0000000E+00   0.1347824E+00   0.9990000E+00   0.3500000E+04   0.9033695E+04   0.1943447E+02 rch
         82     1  2   0.0000000E+00   0.2762738E+10  1    1    5    2 6          1   0.5000000E+00   0.5000000E+00   0.1000000E+01   0.3750000E+03   0.8875000E+04   0.2750187E+02  1    1    5   15 1          1   0.0000000E+00   0.5402029E-01   0.9990000E+00   0.3500000E+04   0.8763505E+04   0.1920707E+02 rch
         83     1  2   0.0000000E+00   0.2321970E+10  1    1    5    3 6          1   0.5000000E+00   0.5000000E+00   0.1000000E+01   0.6250000E+03   0.8875000E+04   0.2721901E+02  1    1    6   15 1          1   0.0000000E+00   0.4819906E+00   0.9990000E+00   0.3500000E+04   0.8620498E+04   0.1898584E+02 rch
         84     1  2   0.0000000E+00   0.2020559E+10  1    1    5    4 6          1   0.5000000E+00   0.5000000E+00   0.1000000E+01   0.8750000E+03   0.8875000E+04   0.2684982E+02  1    1    7   15 1          1   0.0000000E+00   0.9519497E+00   0.9990000E+00   0.3500000E+04   0.8487987E+04   0.1874632E+02 rch
         85     1  2   0.0000000E+00   0.1845836E+10  1    1    5    5 6          1   0.5000000E+00   0.5000000E+00   0.1000000E+01   0.1125000E+04   0.8875000E+04   0.2639653E+02  1    1    7   15 1          1   0.0000000E+00   0.4226666E+00   0.9990000E+00   0.3500000E+04   0.8355667E+04   0.1874632E+02 rch
         86     1  2   0.0000000E+00   0.1691818E+10  1    1    5    6 6          1   0.5000000E+00   0.5000000E+00   0.1000000E+01   0.1375000E+04   0.8875000E+04   0.2583243E+02  1    1    7   15 1          1   0.0000000E+00   0.1210134E+00   0.9990000E+00   0.3500000E+04   0.8280253E+04   0.1874632E+02 rch
         87     1  2   0.0000000E+00   0.1488409E+10  1    1    5    7 6          1   0.5000000E+00   0.5000000E+00   0.1000000E+01   0.1625000E+04   0.8875000E+04   0.2520360E+02  1    1    8   15 1          1   0.0000000E+00   0.9877791E+00   0.9990000E+00   0.3500000E+04   0.8246944E+04   0.1850468E+02 rch
         88     1  2   0.0000000E+00   0.1296842E+10  1    1    5    8 6          1   0.5000000E+00   0.5000000E+00   0.1000000E+01   0.1875000E+04   0.8875000E+04   0.2443818E+02  1    1    7   15 1          1   0.0000000E+00   0.6883423E-01   0.9990000E+00   0.3500000E+04   0.8267209E+04   0.1874632E+02 rch
         89     1  2   0.0000000E+00   0.1111923E+10  1    1    5    9 6          1   0.5000000E+00   0.5000000E+00   0.1000000E+01   0.2125000E+04   0.8875000E+04   0.2357505E+02  1    1    7   15 1          1   0.0000000E+00   0.3661258E+00   0.9990000E+00   0.3500000E+04   0.8341531E+04   0.1874632E+02 rch
         90     1  2   0.0000000E+00   0.8728828E+09  1    1    5   10 6          1   0.5000000E+00   0.5000000E+00   0.1000000E+01   0.2375000E+04   0.8875000E+04   0.2279006E+02  1    1    7   15 1          1   0.0000000E+00   0.8109038E+00   0.9990000E+00   0.3500000E+04   0.8452726E+04   0.1874632E+02 rch
         91     1  2   0.0000000E+00   0.6498245E+09  1    1    5   11 6          1   0.5000000E+00   0.5000000E+00   0.1000000E+01   0.2625000E+04   0.8875000E+04   0.2207583E+02  1    1    6   15 1          1   0.0000000E+00   0.2737348E+00   0.9990000E+00   0.3500000E+04   0.8568434E+04   0.1898584E+02 rch
         92     1  2   0.0000000E+00   0.4506260E+09  1    1    5   12 6          1   0.5000000E+00   0.5000000E+00   0.1000000E+01   0.2875000E+04   0.8875000E+04   0.2140982E+02  1    1    6   15 1          1   0.0000000E+00   0.6912517E+00   0.9990000E+00   0.3500000E+04   0.8672812E+04   0.1898584E+02 rch
         93     1  2   0.0000000E+00   0.2548691E+09  1    1    5   13 6          1   0.5000000E+00   0.5000000E+00   0.1000000E+01   0.3125000E+04   0.8875000E+04   0.2070016E+02  1    1    5   15 1          1   0.0000000E+00   0.4563110E-01   0.9990000E+00   0.3500000E+04   0.8761408E+04   0.1920707E+02 rch
         94     1  2   0.0000000E+00   0.7952878E+08  1    1    5   14 6          1   0.5000000E+00   0.5000000E+00   0.1000000E+01   0.3375000E+04   0.8875000E+04   0.1997719E+02  1    1    5   15 1          1   0.0000000E+00   0.3520203E+00   0.9990000E+00   0.3500000E+04   0.8838005E+04   0.1920707E+02 rch
         95     1  2   0.0000000E+00   0.0000000E+00  1    1    5   15 6          1   0.5000000E+00   0.5000000E+00   0.1000000E+01   0.3625000E+04   0.8875000E+04   0.1922394E+02  1    1    5   15 6          1   0.5000000E+00   0.5000000E+00   0.1000000E+01   0.3625000E+04   0.8875000E+04   0.1922394E+02 rch