MODPATH_PATHLINE_FILE 6 0                                                       
 2   0.0000000E+00
END HEADER
         1     1     0     1   0.0000000E+00   0.3750000E+04   0.7781250E+04   0.4869871E+01    1    9   16  1  0.0000000E+00   0.1250000E+00   0.1250000E+00     1
         1     1    -1     1   0.0000000E+00   0.3750000E+04   0.7781250E+04   0.5335135E+01    1    9   15  1  0.1000000E+01   0.1250000E+00   0.1250000E+00     1
         1     1    -1     1   0.0000000E+00   0.3750000E+04   0.7781250E+04   0.5335135E+01    1    9   15  1  0.1000000E+01   0.1250000E+00   0.1250000E+00     1
         2     1     0     1   0.0000000E+00   0.3750000E+04   0.7843750E+04   0.4869871E+01    1    9   16  1  0.0000000E+00   0.3750000E+00   0.1250000E+00     1
         2     1    -1     1   0.0000000E+00   0.3750000E+04   0.7843750E+04   0.5335135E+01    1    9   15  1  0.1000000E+01   0.3750000E+00   0.1250000E+00     1
         2     1    -1     1   0.0000000E+00   0.3750000E+04   0.7843750E+04   0.5335135E+01    1    9   15  1  0.1000000E+01   0.3750000E+00   0.1250000E+00     1
         3     1     0     1   0.0000000E+00   0.3750000E+04   0.7906250E+04   0.4869871E+01    1    9   16  1  0.0000000E+00   0.6250000E+00   0.1250000E+00     1
         3     1    -1     1   0.0000000E+00   0.3750000E+04   0.7906250E+04   0.5335135E+01    1    9   15  1  0.1000000E+01   0.6250000E+00   0.1250000E+00     1
         3     1    -1     1   0.0000000E+00   0.3750000E+04   0.7906250E+04   0.5335135E+01    1    9   15  1  0.1000000E+01   0.6250000E+00   0.1250000E+00     1
         4     1     0     1   0.0000000E+00   0.3750000E+04   0.7968750E+04   0.4869871E+01    1    9   16  1  0.0000000E+00   0.8750000E+00   0.1250000E+00     1
         4     1    -1     1   0.0000000E+00   0.3750000E+04   0.7968750E+04   0.5335135E+01    1    9   15  1  0.1000000E+01   0.8750000E+00   0.1250000E+00     1
         4     1    -1     1   0.0000000E+00   0.3750000E+04   0.7968750E+04   0.5335135E+01    1    9   15  1  0.1000000E+01   0.8750000E+00   0.1250000E+00     1
         5     1     0     1   0.0000000E+00   0.3750000E+04   0.7781250E+04   0.8187214E+01    1    9   16  1  0.0000000E+00   0.1250000E+00   0.3750000E+00     1
         5     1    -1     1   0.0000000E+00   0.3750000E+04   0.7781250E+04   0.9034005E+01    1    9   15  1  0.1000000E+01   0.1250000E+00   0.3750000E+00     1
         5     1    -1     1   0.0000000E+00   0.3750000E+04   0.7781250E+04   0.9034005E+01    1    9   15  1  0.1000000E+01   0.1250000E+00   0.3750000E+00     1
         6     1     0     1   0.0000000E+00   0.3750000E+04   0.7843750E+04   0.8187214E+01    1    9   16  1  0.0000000E+00   0.3750000E+00   0.3750000E+00     1
         6     1    -1     1   0.0000000E+00   0.3750000E+04   0.7843750E+04   0.9034005E+01    1    9   15  1  0.1000000E+01   0.3750000E+00   0.3750000E+00     1
         6     1    -1     1   0.0000000E+00   0.3750000E+04   0.7843750E+04   0.9034005E+01    1    9   15  1  0.1000000E+01   0.3750000E+00   0.3750000E+00     1
         7     1     0     1   0.0000000E+00   0.3750000E+04   0.7906250E+04   0.8187214E+01    1    9   16  1  0.0000000E+00   0.6250000E+00   0.3750000E+00     1
         7     1    -1     1   0.0000000E+00   0.3750000E+04   0.7906250E+04   0.9034005E+01    1    9   15  1  0.1000000E+01   0.6250000E+00   0.3750000E+00     1
         7     1    -1     1   0.0000000E+00   0.3750000E+04   0.7906250E+04   0.9034005E+01    1    9   15  1  0.1000000E+01   0.6250000E+00   0.3750000E+00     1
         8     1     0     1   0.0000000E+00   0.3750000E+04   0.7968750E+04   0.8187214E+01    1    9   16  1  0.0000000E+00   0.8750000E+00   0.3750000E+00     1
         8     1    -1     1   0.0000000E+00   0.3750000E+04   0.7968750E+04   0.9034005E+01    1    9   15  1  0.1000000E+01   0.8750000E+00   0.3750000E+00     1
         8     1    -1     1   0.0000000E+00   0.3750000E+04   0.7968750E+04   0.9034005E+01    1    9   15  1  0.1000000E+01   0.8750000E+00   0.3750000E+00     1
         9     1     0     1   0.0000000E+00   0.3750000E+04   0.7781250E+04   0.1150456E+02    1    9   16  1  0.0000000E+00   0.1250000E+00   0.6250000E+00     1
         9     1    -1     1   0.0000000E+00   0.3750000E+04   0.7781250E+04   0.1273288E+02    1    9   15  1  0.1000000E+01   0.1250000E+00   0.6250000E+00     1
         9     1    -1     1   0.0000000E+00   0.3750000E+04   0.7781250E+04   0.1273288E+02    1    9   15  1  0.1000000E+01   0.1250000E+00   0.6250000E+00     1
        10     1     0     1   0.0000000E+00   0.3750000E+04   0.7843750E+04   0.1150456E+02    1    9   16  1  0.0000000E+00   0.3750000E+00   0.6250000E+00     1
        10     1    -1     1   0.0000000E+00   0.3750000E+04   0.7843750E+04   0.1273288E+02    1    9   15  1  0.1000000E+01   0.3750000E+00   0.6250000E+00     1
        10     1    -1     1   0.0000000E+00   0.3750000E+04   0.7843750E+04   0.1273288E+02    1    9   15  1  0.1000000E+01   0.3750000E+00   0.6250000E+00     1
        11     1     0     1   0.0000000E+00   0.3750000E+04   0.7906250E+04   0.1150456E+02    1    9   16  1  0.0000000E+00   0.6250000E+00   0.6250000E+00     1
        11     1    -1     1   0.0000000E+00   0.3750000E+04   0.7906250E+04   0.1273288E+02    1    9   15  1  0.1000000E+01   0.6250000E+00   0.6250000E+00     1
        11     1    -1     1   0.0000000E+00   0.3750000E+04   0.7906250E+04   0.1273288E+02    1    9   15  1  0.1000000E+01   0.6250000E+00   0.6250000E+00     1
        12     1     0     1   0.0000000E+00   0.3750000E+04   0.7968750E+04   0.1150456E+02    1    9   16  1  0.0000000E+00   0.8750000E+00   0.6250000E+00     1
        12     1    -1     1   0.0000000E+00   0.3750000E+04   0.7968750E+04   0.1273288E+02    1    9   15  1  0.1000000E+01   0.8750000E+00   0.6250000E+00     1
        12     1    -1     1   0.0000000E+00   0.3750000E+04   0.7968750E+04   0.1273288E+02    1    9   15  1  0.1000000E+01   0.8750000E+00   0.6250000E+00     1
        13     1     0     1   0.0000000E+00   0.3750000E+04   0.7781250E+04   0.1482190E+02    1    9   16  1  0.0000000E+00   0.1250000E+00   0.8750000E+00     1
        13     1    -1     1   0.0000000E+00   0.3750000E+04   0.7781250E+04   0.1643175E+02    1    9   15  1  0.1000000E+01   0.1250000E+00   0.8750000E+00     1
        13     1    -1     1   0.0000000E+00   0.3750000E+04   0.7781250E+04   0.1643175E+02    1    9   15  1  0.1000000E+01   0.1250000E+00   0.8750000E+00     1
        14     1     0     1   0.0000000E+00   0.3750000E+04   0.7843750E+04   0.1482190E+02    1    9   16  1  0.0000000E+00   0.3750000E+00   0.8750000E+00     1
        14     1    -1     1   0.0000000E+00   0.3750000E+04   0.7843750E+04   0.1643175E+02    1    9   15  1  0.1000000E+01   0.3750000E+00   0.8750000E+00     1
        14     1    -1     1   0.0000000E+00   0.3750000E+04   0.7843750E+04   0.1643175E+02    1    9   15  1  0.1000000E+01   0.3750000E+00   0.8750000E+00     1
        15     1     0     1   0.0000000E+00   0.3750000E+04   0.7906250E+04   0.1482190E+02    1    9   16  1  0.0000000E+00   0.6250000E+00   0.8750000E+00     1
        15     1    -1     1   0.0000000E+00   0.3750000E+04   0.7906250E+04   0.1643175E+02    1    9   15  1  0.1000000E+01   0.6250000E+00   0.8750000E+00     1
        15     1    -1     1   0.0000000E+00   0.3750000E+04   0.7906250E+04   0.1643175E+02    1    9   15  1  0.1000000E+01   0.6250000E+00   0.8750000E+00     1
        16     1     0     1   0.0000000E+00   0.3750000E+04   0.7968750E+04   0.1482190E+02    1    9   16  1  0.0000000E+00   0.8750000E+00   0.8750000E+00     1
        16     1    -1     1   0.0000000E+00   0.3750000E+04   0.7968750E+04   0.1643175E+02    1    9   15  1  0.1000000E+01   0.8750000E+00   0.8750000E+00     1
        16     1    -1     1   0.0000000E+00   0.3750000E+04   0.7968750E+04   0.1643175E+02    1    9   15  1  0.1000000E+01   0.8750000E+00   0.8750000E+00     1
        17     1     0     1   0.0000000E+00   0.4000000E+04   0.7781250E+04   0.4869871E+01    1    9   16  1  0.1000000E+01   0.1250000E+00   0.1250000E+00     1
        17     1    -1     1   0.0000000E+00   0.4000000E+04   0.7781250E+04   0.4938220E+01    1    9   17  1  0.0000000E+00   0.1250000E+00   0.1250000E+00     1
        17     1     1     1   0.1000000E+01   0.4000000E+04   0.7781250E+04   0.4938220E+01    1    9   17  1  0.0000000E+00   0.1250000E+00   0.1250000E+00     1
        18     1     0     1   0.0000000E+00   0.4000000E+04   0.7843750E+04   0.4869871E+01    1    9   16  1  0.1000000E+01   0.3750000E+00   0.1250000E+00     1
        18     1    -1     1   0.0000000E+00   0.4000000E+04   0.7843750E+04   0.4938220E+01    1    9   17  1  0.0000000E+00   0.3750000E+00   0.1250000E+00     1
        18     1     1     1   0.1000000E+01   0.4000000E+04   0.7843750E+04   0.4938220E+01    1    9   17  1  0.0000000E+00   0.3750000E+00   0.1250000E+00     1
        19     1     0     1   0.0000000E+00   0.4000000E+04   0.7906250E+04   0.4869871E+01    1    9   16  1  0.1000000E+01   0.6250000E+00   0.1250000E+00     1
        19     1    -1     1   0.0000000E+00   0.4000000E+04   0.7906250E+04   0.4938220E+01    1    9   17  1  0.0000000E+00   0.6250000E+00   0.1250000E+00     1
        19     1     1     1   0.1000000E+01   0.4000000E+04   0.7906250E+04   0.4938220E+01    1    9   17  1  0.0000000E+00   0.6250000E+00   0.1250000E+00     1
        20     1     0     1   0.0000000E+00   0.4000000E+04   0.7968750E+04   0.4869871E+01    1    9   16  1  0.1000000E+01   0.8750000E+00   0.1250000E+00     1
        20     1    -1     1   0.0000000E+00   0.4000000E+04   0.7968750E+04   0.4938220E+01    1    9   17  1  0.0000000E+00   0.8750000E+00   0.1250000E+00     1
        20     1     1     1   0.1000000E+01   0.4000000E+04   0.7968750E+04   0.4938220E+01    1    9   17  1  0.0000000E+00   0.8750000E+00   0.1250000E+00     1
        21     1     0     1   0.0000000E+00   0.4000000E+04   0.7781250E+04   0.8187214E+01    1    9   16  1  0.1000000E+01   0.1250000E+00   0.3750000E+00     1
        21     1    -1     1   0.0000000E+00   0.4000000E+04   0.7781250E+04   0.8653460E+01    1    9   17  1  0.0000000E+00   0.1250000E+00   0.3750000E+00     1
        21     1     1     1   0.1000000E+01   0.4000000E+04   0.7781250E+04   0.8653460E+01    1    9   17  1  0.0000000E+00   0.1250000E+00   0.3750000E+00     1
        22     1     0     1   0.0000000E+00   0.4000000E+04   0.7843750E+04   0.8187214E+01    1    9   16  1  0.1000000E+01   0.3750000E+00   0.3750000E+00     1
        22     1    -1     1   0.0000000E+00   0.4000000E+04   0.7843750E+04   0.8653460E+01    1    9   17  1  0.0000000E+00   0.3750000E+00   0.3750000E+00     1
        22     1     1     1   0.1000000E+01   0.4000000E+04   0.7843750E+04   0.8653460E+01    1    9   17  1  0.0000000E+00   0.3750000E+00   0.3750000E+00     1
        23     1     0     1   0.0000000E+00   0.4000000E+04   0.7906250E+04   0.8187214E+01    1    9   16  1  0.1000000E+01   0.6250000E+00   0.3750000E+00     1
        23     1    -1     1   0.0000000E+00   0.4000000E+04   0.7906250E+04   0.8653460E+01    1    9   17  1  0.0000000E+00   0.6250000E+00   0.3750000E+00     1
        23     1     1     1   0.1000000E+01   0.4000000E+04   0.7906250E+04   0.8653460E+01    1    9   17  1  0.0000000E+00   0.6250000E+00   0.3750000E+00     1
        24     1     0     1   0.0000000E+00   0.4000000E+04   0.7968750E+04   0.8187214E+01    1    9   16  1  0.1000000E+01   0.8750000E+00   0.3750000E+00     1
        24     1    -1     1   0.0000000E+00   0.4000000E+04   0.7968750E+04   0.8653460E+01    1    9   17  1  0.0000000E+00   0.8750000E+00   0.3750000E+00     1
        24     1     1     1   0.1000000E+01   0.4000000E+04   0.7968750E+04   0.8653460E+01    1    9   17  1  0.0000000E+00   0.8750000E+00   0.3750000E+00     1
        25     1     0     1   0.0000000E+00   0.4000000E+04   0.7781250E+04   0.1150456E+02    1    9   16  1  0.1000000E+01   0.1250000E+00   0.6250000E+00     1
        25     1    -1     1   0.0000000E+00   0.4000000E+04   0.7781250E+04   0.1236870E+02    1    9   17  1  0.0000000E+00   0.1250000E+00   0.6250000E+00     1
        25     1     1     1   0.1000000E+01   0.4000000E+04   0.7781250E+04   0.1236870E+02    1    9   17  1  0.0000000E+00   0.1250000E+00   0.6250000E+00     1
        26     1     0     1   0.0000000E+00   0.4000000E+04   0.7843750E+04   0.1150456E+02    1    9   16  1  0.1000000E+01   0.3750000E+00   0.6250000E+00     1
        26     1    -1     1   0.0000000E+00   0.4000000E+04   0.7843750E+04   0.1236870E+02    1    9   17  1  0.0000000E+00   0.3750000E+00   0.6250000E+00     1
        26     1     1     1   0.1000000E+01   0.4000000E+04   0.7843750E+04   0.1236870E+02    1    9   17  1  0.0000000E+00   0.3750000E+00   0.6250000E+00     1
        27     1     0     1   0.0000000E+00   0.4000000E+04   0.7906250E+04   0.1150456E+02    1    9   16  1  0.1000000E+01   0.6250000E+00   0.6250000E+00     1
        27     1    -1     1   0.0000000E+00   0.4000000E+04   0.7906250E+04   0.1236870E+02    1    9   17  1  0.0000000E+00   0.6250000E+00   0.6250000E+00     1
        27     1     1     1   0.1000000E+01   0.4000000E+04   0.7906250E+04   0.1236870E+02    1    9   17  1  0.0000000E+00   0.6250000E+00   0.6250000E+00     1
        28     1     0     1   0.0000000E+00   0.4000000E+04   0.7968750E+04   0.1150456E+02    1    9   16  1  0.1000000E+01   0.8750000E+00   0.6250000E+00     1
        28     1    -1     1   0.0000000E+00   0.4000000E+04   0.7968750E+04   0.1236870E+02    1    9   17  1  0.0000000E+00   0.8750000E+00   0.6250000E+00     1
        28     1     1     1   0.1000000E+01   0.4000000E+04   0.7968750E+04   0.1236870E+02    1    9   17  1  0.0000000E+00   0.8750000E+00   0.6250000E+00     1
        29     1     0     1   0.0000000E+00   0.4000000E+04   0.7781250E+04   0.1482190E+02    1    9   16  1  0.1000000E+01   0.1250000E+00   0.8750000E+00     1
        29     1    -1     1   0.0000000E+00   0.4000000E+04   0.7781250E+04   0.1608394E+02    1    9   17  1  0.0000000E+00   0.1250000E+00   0.8750000E+00     1
        29     1     1     1   0.1000000E+01   0.4000000E+04   0.7781250E+04   0.1608394E+02    1    9   17  1  0.0000000E+00   0.1250000E+00   0.8750000E+00     1
        30     1     0     1   0.0000000E+00   0.4000000E+04   0.7843750E+04   0.1482190E+02    1    9   16  1  0.1000000E+01   0.3750000E+00   0.8750000E+00     1
        30     1    -1     1   0.0000000E+00   0.4000000E+04   0.7843750E+04   0.1608394E+02    1    9   17  1  0.0000000E+00   0.3750000E+00   0.8750000E+00     1
        30     1     1     1   0.1000000E+01   0.4000000E+04   0.7843750E+04   0.1608394E+02    1    9   17  1  0.0000000E+00   0.3750000E+00   0.8750000E+00     1
        31     1     0     1   0.0000000E+00   0.4000000E+04   0.7906250E+04   0.1482190E+02    1    9   16  1  0.1000000E+01   0.6250000E+00   0.8750000E+00     1
        31     1    -1     1   0.0000000E+00   0.4000000E+04   0.7906250E+04   0.1608394E+02    1    9   17  1  0.0000000E+00   0.6250000E+00   0.8750000E+00     1
        31     1     1     1   0.1000000E+01   0.4000000E+04   0.7906250E+04   0.1608394E+02    1    9   17  1  0.0000000E+00   0.6250000E+00   0.8750000E+00     1
        32     1     0     1   0.0000000E+00   0.4000000E+04   0.7968750E+04   0.1482190E+02    1    9   16  1  0.1000000E+01   0.8750000E+00   0.8750000E+00     1
        32     1    -1     1   0.0000000E+00   0.4000000E+04   0.7968750E+04   0.1608394E+02    1    9   17  1  0.0000000E+00   0.8750000E+00   0.8750000E+00     1
        32     1     1     1   0.1000000E+01   0.4000000E+04   0.7968750E+04   0.1608394E+02    1    9   17  1  0.0000000E+00   0.8750000E+00   0.8750000E+00     1
        33     1     0     1   0.0000000E+00   0.3781250E+04   0.7750000E+04   0.4869871E+01    1    9   16  1  0.1250000E+00   0.0000000E+00   0.1250000E+00     1
        33     1    -1     1   0.0000000E+00   0.3781250E+04   0.7750000E+04   0.4375511E+01    1   10   16  1  0.1250000E+00   0.1000000E+01   0.1250000E+00     1
        33     1     1     1   0.1000000E+01   0.3781250E+04   0.7750000E+04   0.4375511E+01    1   10   16  1  0.1250000E+00   0.1000000E+01   0.1250000E+00     1
        34     1     0     1   0.0000000E+00   0.3843750E+04   0.7750000E+04   0.4869871E+01    1    9   16  1  0.3750000E+00   0.0000000E+00   0.1250000E+00     1
        34     1    -1     1   0.0000000E+00   0.3843750E+04   0.7750000E+04   0.4375511E+01    1   10   16  1  0.3750000E+00   0.1000000E+01   0.1250000E+00     1
        34     1     1     1   0.1000000E+01   0.3843750E+04   0.7750000E+04   0.4375511E+01    1   10   16  1  0.3750000E+00   0.1000000E+01   0.1250000E+00     1
        35     1     0     1   0.0000000E+00   0.3906250E+04   0.7750000E+04   0.4869871E+01    1    9   16  1  0.6250000E+00   0.0000000E+00   0.1250000E+00     1
        35     1    -1     1   0.0000000E+00   0.3906250E+04   0.7750000E+04   0.4375511E+01    1   10   16  1  0.6250000E+00   0.1000000E+01   0.1250000E+00     1
        35     1     1     1   0.1000000E+01   0.3906250E+04   0.7750000E+04   0.4375511E+01    1   10   16  1  0.6250000E+00   0.1000000E+01   0.1250000E+00     1
        36     1     0     1   0.0000000E+00   0.3968750E+04   0.7750000E+04   0.4869871E+01    1    9   16  1  0.8750000E+00   0.0000000E+00   0.1250000E+00     1
        36     1    -1     1   0.0000000E+00   0.3968750E+04   0.7750000E+04   0.4375511E+01    1   10   16  1  0.8750000E+00   0.1000000E+01   0.1250000E+00     1
        36     1     1     1   0.1000000E+01   0.3968750E+04   0.7750000E+04   0.4375511E+01    1   10   16  1  0.8750000E+00   0.1000000E+01   0.1250000E+00     1
        37     1     0     1   0.0000000E+00   0.3781250E+04   0.7750000E+04   0.8187214E+01    1    9   16  1  0.1250000E+00   0.0000000E+00   0.3750000E+00     1
        37     1    -1     1   0.0000000E+00   0.3781250E+04   0.7750000E+04   0.8252934E+01    1   10   16  1  0.1250000E+00   0.1000000E+01   0.3750000E+00     1
        37     1     1     1   0.1000000E+01   0.3781250E+04   0.7750000E+04   0.8252934E+01    1   10   16  1  0.1250000E+00   0.1000000E+01   0.3750000E+00     1
        38     1     0     1   0.0000000E+00   0.3843750E+04   0.7750000E+04   0.8187214E+01    1    9   16  1  0.3750000E+00   0.0000000E+00   0.3750000E+00     1
        38     1    -1     1   0.0000000E+00   0.3843750E+04   0.7750000E+04   0.8252934E+01    1   10   16  1  0.3750000E+00   0.1000000E+01   0.3750000E+00     1
        38     1     1     1   0.1000000E+01   0.3843750E+04   0.7750000E+04   0.8252934E+01    1   10   16  1  0.3750000E+00   0.1000000E+01   0.3750000E+00     1
        39     1     0     1   0.0000000E+00   0.3906250E+04   0.7750000E+04   0.8187214E+01    1    9   16  1  0.6250000E+00   0.0000000E+00   0.3750000E+00     1
        39     1    -1     1   0.0000000E+00   0.3906250E+04   0.7750000E+04   0.8252934E+01    1   10   16  1  0.6250000E+00   0.1000000E+01   0.3750000E+00     1
        39     1     1     1   0.1000000E+01   0.3906250E+04   0.7750000E+04   0.8252934E+01    1   10   16  1  0.6250000E+00   0.1000000E+01   0.3750000E+00     1
        40     1     0     1   0.0000000E+00   0.3968750E+04   0.7750000E+04   0.8187214E+01    1    9   16  1  0.8750000E+00   0.0000000E+00   0.3750000E+00     1
        40     1    -1     1   0.0000000E+00   0.3968750E+04   0.7750000E+04   0.8252934E+01    1   10   16  1  0.8750000E+00   0.1000000E+01   0.3750000E+00     1
        40     1     1     1   0.1000000E+01   0.3968750E+04   0.7750000E+04   0.8252934E+01    1   10   16  1  0.8750000E+00   0.1000000E+01   0.3750000E+00     1
        41     1     0     1   0.0000000E+00   0.3781250E+04   0.7750000E+04   0.1150456E+02    1    9   16  1  0.1250000E+00   0.0000000E+00   0.6250000E+00     1
        41     1    -1     1   0.0000000E+00   0.3781250E+04   0.7750000E+04   0.1213036E+02    1   10   16  1  0.1250000E+00   0.1000000E+01   0.6250000E+00     1
        41     1     1     1   0.1000000E+01   0.3781250E+04   0.7750000E+04   0.1213036E+02    1   10   16  1  0.1250000E+00   0.1000000E+01   0.6250000E+00     1
        42     1     0     1   0.0000000E+00   0.3843750E+04   0.7750000E+04   0.1150456E+02    1    9   16  1  0.3750000E+00   0.0000000E+00   0.6250000E+00     1
        42     1    -1     1   0.0000000E+00   0.3843750E+04   0.7750000E+04   0.1213036E+02    1   10   16  1  0.3750000E+00   0.1000000E+01   0.6250000E+00     1
        42     1     1     1   0.1000000E+01   0.3843750E+04   0.7750000E+04   0.1213036E+02    1   10   16  1  0.3750000E+00   0.1000000E+01   0.6250000E+00     1
        43     1     0     1   0.0000000E+00   0.3906250E+04   0.7750000E+04   0.1150456E+02    1    9   16  1  0.6250000E+00   0.0000000E+00   0.6250000E+00     1
        43     1    -1     1   0.0000000E+00   0.3906250E+04   0.7750000E+04   0.1213036E+02    1   10   16  1  0.6250000E+00   0.1000000E+01   0.6250000E+00     1
        43     1     1     1   0.1000000E+01   0.3906250E+04   0.7750000E+04   0.1213036E+02    1   10   16  1  0.6250000E+00   0.1000000E+01   0.6250000E+00     1
        44     1     0     1   0.0000000E+00   0.3968750E+04   0.7750000E+04   0.1150456E+02    1    9   16  1  0.8750000E+00   0.0000000E+00   0.6250000E+00     1
        44     1    -1     1   0.0000000E+00   0.3968750E+04   0.7750000E+04   0.1213036E+02    1   10   16  1  0.8750000E+00   0.1000000E+01   0.6250000E+00     1
        44     1     1     1   0.1000000E+01   0.3968750E+04   0.7750000E+04   0.1213036E+02    1   10   16  1  0.8750000E+00   0.1000000E+01   0.6250000E+00     1
        45     1     0     1   0.0000000E+00   0.3781250E+04   0.7750000E+04   0.1482190E+02    1    9   16  1  0.1250000E+00   0.0000000E+00   0.8750000E+00     1
        45     1    -1     1   0.0000000E+00   0.3781250E+04   0.7750000E+04   0.1600778E+02    1   10   16  1  0.1250000E+00   0.1000000E+01   0.8750000E+00     1
        45     1     1     1   0.1000000E+01   0.3781250E+04   0.7750000E+04   0.1600778E+02    1   10   16  1  0.1250000E+00   0.1000000E+01   0.8750000E+00     1
        46     1     0     1   0.0000000E+00   0.3843750E+04   0.7750000E+04   0.1482190E+02    1    9   16  1  0.3750000E+00   0.0000000E+00   0.8750000E+00     1
        46     1    -1     1   0.0000000E+00   0.3843750E+04   0.7750000E+04   0.1600778E+02    1   10   16  1  0.3750000E+00   0.1000000E+01   0.8750000E+00     1
        46     1     1     1   0.1000000E+01   0.3843750E+04   0.7750000E+04   0.1600778E+02    1   10   16  1  0.3750000E+00   0.1000000E+01   0.8750000E+00     1
        47     1     0     1   0.0000000E+00   0.3906250E+04   0.7750000E+04   0.1482190E+02    1    9   16  1  0.6250000E+00   0.0000000E+00   0.8750000E+00     1
        47     1    -1     1   0.0000000E+00   0.3906250E+04   0.7750000E+04   0.1600778E+02    1   10   16  1  0.6250000E+00   0.1000000E+01   0.8750000E+00     1
        47     1     1     1   0.1000000E+01   0.3906250E+04   0.7750000E+04   0.1600778E+02    1   10   16  1  0.6250000E+00   0.1000000E+01   0.8750000E+00     1
        48     1     0     1   0.0000000E+00   0.3968750E+04   0.7750000E+04   0.1482190E+02    1    9   16  1  0.8750000E+00   0.0000000E+00   0.8750000E+00     1
        48     1    -1     1   0.0000000E+00   0.3968750E+04   0.7750000E+04   0.1600778E+02    1   10   16  1  0.8750000E+00   0.1000000E+01   0.8750000E+00     1
        48     1     1     1   0.1000000E+01   0.3968750E+04   0.7750000E+04   0.1600778E+02    1   10   16  1  0.8750000E+00   0.1000000E+01   0.8750000E+00     1
        49     1     0     1   0.0000000E+00   0.3781250E+04   0.8000000E+04   0.4869871E+01    1    9   16  1  0.1250000E+00   0.1000000E+01   0.1250000E+00     1
        49     1    -1     1   0.0000000E+00   0.3781250E+04   0.8000000E+04   0.5057857E+01    1    8   16  1  0.1250000E+00   0.0000000E+00   0.1250000E+00     1
        49     1     1     1   0.1000000E+01   0.3781250E+04   0.8000000E+04   0.5057857E+01    1    8   16  1  0.1250000E+00   0.0000000E+00   0.1250000E+00     1
        50     1     0     1   0.0000000E+00   0.3843750E+04   0.8000000E+04   0.4869871E+01    1    9   16  1  0.3750000E+00   0.1000000E+01   0.1250000E+00     1
        50     1    -1     1   0.0000000E+00   0.3843750E+04   0.8000000E+04   0.5057857E+01    1    8   16  1  0.3750000E+00   0.0000000E+00   0.1250000E+00     1
        50     1     1     1   0.1000000E+01   0.3843750E+04   0.8000000E+04   0.5057857E+01    1    8   16  1  0.3750000E+00   0.0000000E+00   0.1250000E+00     1
        51     1     0     1   0.0000000E+00   0.3906250E+04   0.8000000E+04   0.4869871E+01    1    9   16  1  0.6250000E+00   0.1000000E+01   0.1250000E+00     1
        51     1    -1     1   0.0000000E+00   0.3906250E+04   0.8000000E+04   0.5057857E+01    1    8   16  1  0.6250000E+00   0.0000000E+00   0.1250000E+00     1
        51     1     1     1   0.1000000E+01   0.3906250E+04   0.8000000E+04   0.5057857E+01    1    8   16  1  0.6250000E+00   0.0000000E+00   0.1250000E+00     1
        52     1     0     1   0.0000000E+00   0.3968750E+04   0.8000000E+04   0.4869871E+01    1    9   16  1  0.8750000E+00   0.1000000E+01   0.1250000E+00     1
        52     1    -1     1   0.0000000E+00   0.3968750E+04   0.8000000E+04   0.5057857E+01    1    8   16  1  0.8750000E+00   0.0000000E+00   0.1250000E+00     1
        52     1     1     1   0.1000000E+01   0.3968750E+04   0.8000000E+04   0.5057857E+01    1    8   16  1  0.8750000E+00   0.0000000E+00   0.1250000E+00     1
        53     1     0     1   0.0000000E+00   0.3781250E+04   0.8000000E+04   0.8187214E+01    1    9   16  1  0.1250000E+00   0.1000000E+01   0.3750000E+00     1
        53     1    -1     1   0.0000000E+00   0.3781250E+04   0.8000000E+04   0.8783369E+01    1    8   16  1  0.1250000E+00   0.0000000E+00   0.3750000E+00     1
        53     1     1     1   0.1000000E+01   0.3781250E+04   0.8000000E+04   0.8783369E+01    1    8   16  1  0.1250000E+00   0.0000000E+00   0.3750000E+00     1
        54     1     0     1   0.0000000E+00   0.3843750E+04   0.8000000E+04   0.8187214E+01    1    9   16  1  0.3750000E+00   0.1000000E+01   0.3750000E+00     1
        54     1    -1     1   0.0000000E+00   0.3843750E+04   0.8000000E+04   0.8783369E+01    1    8   16  1  0.3750000E+00   0.0000000E+00   0.3750000E+00     1
        54     1     1     1   0.1000000E+01   0.3843750E+04   0.8000000E+04   0.8783369E+01    1    8   16  1  0.3750000E+00   0.0000000E+00   0.3750000E+00     1
        55     1     0     1   0.0000000E+00   0.3906250E+04   0.8000000E+04   0.8187214E+01    1    9   16  1  0.6250000E+00   0.1000000E+01   0.3750000E+00     1
        55     1    -1     1   0.0000000E+00   0.3906250E+04   0.8000000E+04   0.8783369E+01    1    8   16  1  0.6250000E+00   0.0000000E+00   0.3750000E+00     1
        55     1     1     1   0.1000000E+01   0.3906250E+04   0.8000000E+04   0.8783369E+01    1    8   16  1  0.6250000E+00   0.0000000E+00   0.3750000E+00     1
        56     1     0     1   0.0000000E+00   0.3968750E+04   0.8000000E+04   0.8187214E+01    1    9   16  1  0.8750000E+00   0.1000000E+01   0.3750000E+00     1
        56     1    -1     1   0.0000000E+00   0.3968750E+04   0.8000000E+04   0.8783369E+01    1    8   16  1  0.8750000E+00   0.0000000E+00   0.3750000E+00     1
        56     1     1     1   0.1000000E+01   0.3968750E+04   0.8000000E+04   0.8783369E+01    1    8   16  1  0.8750000E+00   0.0000000E+00   0.3750000E+00     1
        57     1     0     1   0.0000000E+00   0.3781250E+04   0.8000000E+04   0.1150456E+02    1    9   16  1  0.1250000E+00   0.1000000E+01   0.6250000E+00     1
        57     1    -1     1   0.0000000E+00   0.3781250E+04   0.8000000E+04   0.1250888E+02    1    8   16  1  0.1250000E+00   0.0000000E+00   0.6250000E+00     1
        57     1     1     1   0.1000000E+01   0.3781250E+04   0.8000000E+04   0.1250888E+02    1    8   16  1  0.1250000E+00   0.0000000E+00   0.6250000E+00     1
        58     1     0     1   0.0000000E+00   0.3843750E+04   0.8000000E+04   0.1150456E+02    1    9   16  1  0.3750000E+00   0.1000000E+01   0.6250000E+00     1
        58     1    -1     1   0.0000000E+00   0.3843750E+04   0.8000000E+04   0.1250888E+02    1    8   16  1  0.3750000E+00   0.0000000E+00   0.6250000E+00     1
        58     1     1     1   0.1000000E+01   0.3843750E+04   0.8000000E+04   0.1250888E+02    1    8   16  1  0.3750000E+00   0.0000000E+00   0.6250000E+00     1
        59     1     0     1   0.0000000E+00   0.3906250E+04   0.8000000E+04   0.1150456E+02    1    9   16  1  0.6250000E+00   0.1000000E+01   0.6250000E+00     1
        59     1    -1     1   0.0000000E+00   0.3906250E+04   0.8000000E+04   0.1250888E+02    1    8   16  1  0.6250000E+00   0.0000000E+00   0.6250000E+00     1
        59     1     1     1   0.1000000E+01   0.3906250E+04   0.8000000E+04   0.1250888E+02    1    8   16  1  0.6250000E+00   0.0000000E+00   0.6250000E+00     1
        60     1     0     1   0.0000000E+00   0.3968750E+04   0.8000000E+04   0.1150456E+02    1    9   16  1  0.8750000E+00   0.1000000E+01   0.6250000E+00     1
        60     1    -1     1   0.0000000E+00   0.3968750E+04   0.8000000E+04   0.1250888E+02    1    8   16  1  0.8750000E+00   0.0000000E+00   0.6250000E+00     1
        60     1     1     1   0.1000000E+01   0.3968750E+04   0.8000000E+04   0.1250888E+02    1    8   16  1  0.8750000E+00   0.0000000E+00   0.6250000E+00     1
        61     1     0     1   0.0000000E+00   0.3781250E+04   0.8000000E+04   0.1482190E+02    1    9   16  1  0.1250000E+00   0.1000000E+01   0.8750000E+00     1
        61     1    -1     1   0.0000000E+00   0.3781250E+04   0.8000000E+04   0.1623439E+02    1    8   16  1  0.1250000E+00   0.0000000E+00   0.8750000E+00     1