# SFR2 for MODFLOW, generated by Flopy.
REACHINPUT LOSSFACTOR 0.5 STRHC1KH 0.2 STRHC1KV 0.4
201 15 0 0 86400.00000000 0.00010000 -1 0 3 8 1 40 
1 39 15 1 1 102.0 2356.5 0.0419999994338 1.0 5.0 0.300000011921 0.20000000298 3.5 0.300000011921
1 39 16 1 2 90.0 2352.5 0.0640000030398 1.0 5.0 0.300000011921 0.20000000298 3.5 0.300000011921
1 39 17 1 3 60.0 2345.5 0.082999996841 1.0 5.0 0.300000011921 0.20000000298 3.5 0.300000011921
1 38 17 1 4 30.0 2342.5 0.0810000002384 1.0 5.0 0.300000011921 0.20000000298 3.5 0.300000011921
1 38 18 1 5 102.0 2336.5 0.0619999989867 1.0 5.0 0.300000011921 0.20000000298 3.5 0.300000011921
1 38 19 1 6 90.0 2332.5 0.0649999976158 1.0 5.0 0.300000011921 0.20000000298 3.5 0.300000011921
1 38 20 1 7 90.0 2324.5 0.0890000015497 1.0 5.0 0.300000011921 0.20000000298 3.5 0.300000011921
1 38 21 1 8 90.0 2316.5 0.097000002861 1.0 5.0 0.300000011921 0.20000000298 3.5 0.300000011921
1 38 22 1 9 102.0 2306.5 0.141000002623 1.0 5.0 0.300000011921 0.20000000298 3.5 0.300000011921
1 38 23 1 10 102.0 2288.5 0.186000004411 1.0 5.0 0.300000011921 0.20000000298 3.5 0.300000011921
1 37 24 1 11 102.0 2268.5 0.216999992728 1.0 5.0 0.300000011921 0.20000000298 3.5 0.300000011921
1 37 25 1 12 72.0 2247.5 0.202999994159 1.0 5.0 0.300000011921 0.20000000298 3.5 0.300000011921
1 36 25 1 13 30.0 2240.5 0.206000000238 1.0 5.0 0.300000011921 0.20000000298 3.5 0.300000011921
1 36 26 1 14 72.0 2226.5 0.206000000238 1.0 5.0 0.300000011921 0.20000000298 3.5 0.300000011921
1 35 26 1 15 30.0 2219.5 0.143999993801 1.0 5.0 0.300000011921 0.20000000298 3.5 0.300000011921
1 35 27 1 16 90.0 2210.5 0.146999999881 1.0 5.0 0.300000011921 0.20000000298 3.5 0.300000011921
1 36 28 1 17 102.0 2196.5 0.135000005364 1.0 5.0 0.300000011921 0.20000000298 3.5 0.300000011921
1 36 29 1 18 90.0 2184.5 0.128999993205 1.0 5.0 0.300000011921 0.20000000298 3.5 0.300000011921
1 36 30 1 19 90.0 2172.5 0.123999997973 1.0 5.0 0.300000011921 0.20000000298 3.5 0.300000011921
1 36 31 1 20 102.0 2161.5 0.136000007391 1.0 5.0 0.300000011921 0.20000000298 3.5 0.300000011921
1 36 32 1 21 30.0 2150.5 0.162000000477 1.0 5.0 0.300000011921 0.20000000298 3.5 0.300000011921
1 35 32 1 22 72.0 2142.5 0.146999999881 1.0 5.0 0.300000011921 0.20000000298 3.5 0.300000011921
1 35 33 1 23 30.0 2135.5 0.157000005245 1.0 5.0 0.300000011921 0.20000000298 3.5 0.300000011921
1 34 33 1 24 72.0 2126.5 0.146999999881 1.0 5.0 0.300000011921 0.20000000298 3.5 0.300000011921
1 34 34 1 25 30.0 2120.5 0.115000002086 1.0 5.0 0.300000011921 0.20000000298 3.5 0.300000011921
1 33 34 1 26 60.0 2115.5 0.116999998689 1.0 5.0 0.300000011921 0.20000000298 3.5 0.300000011921
1 33 35 1 27 72.0 2107.5 0.111000001431 1.0 5.0 0.300000011921 0.20000000298 3.5 0.300000011921
1 32 35 1 28 30.0 2102.5 0.119999997318 1.0 5.0 0.300000011921 0.20000000298 3.5 0.300000011921
1 32 36 1 29 102.0 2093.5 0.0989999994636 1.0 5.0 0.300000011921 0.20000000298 3.5 0.300000011921
1 32 37 1 30 90.0 2086.5 0.0729999989271 1.0 5.0 0.300000011921 0.20000000298 3.5 0.300000011921
1 53 37 2 1 90.0 2147.5 0.0370000004768 1.0 5.0 0.300000011921 0.20000000298 3.5 0.300000011921
1 52 37 2 2 72.0 2144.5 0.0379999987781 1.0 5.0 0.300000011921 0.20000000298 3.5 0.300000011921
1 52 38 2 3 30.0 2142.5 0.0599999986589 1.0 5.0 0.300000011921 0.20000000298 3.5 0.300000011921
1 51 38 2 4 102.0 2137.5 0.0480000004172 1.0 5.0 0.300000011921 0.20000000298 3.5 0.300000011921
1 50 38 2 5 60.0 2135.5 0.0240000002086 1.0 5.0 0.300000011921 0.20000000298 3.5 0.300000011921
1 50 39 2 6 30.0 2134.5 0.0289999991655 1.0 5.0 0.300000011921 0.20000000298 3.5 0.300000011921
1 49 39 2 7 90.0 2132.5 0.0320000015199 1.0 5.0 0.300000011921 0.20000000298 3.5 0.300000011921
1 48 39 2 8 102.0 2129.5 0.0280000008643 1.0 5.0 0.300000011921 0.20000000298 3.5 0.300000011921
1 47 39 2 9 60.0 2127.5 0.0240000002086 1.0 5.0 0.300000011921 0.20000000298 3.5 0.300000011921
1 47 40 2 10 30.0 2126.5 0.0289999991655 1.0 5.0 0.300000011921 0.20000000298 3.5 0.300000011921
1 46 40 2 11 90.0 2124.5 0.0329999998212 1.0 5.0 0.300000011921 0.20000000298 3.5 0.300000011921
1 45 40 2 12 30.0 2122.5 0.0379999987781 1.0 5.0 0.300000011921 0.20000000298 3.5 0.300000011921
1 45 39 2 13 60.0 2120.5 0.0320000015199 1.0 5.0 0.300000011921 0.20000000298 3.5 0.300000011921
1 44 39 2 14 102.0 2118.5 0.0379999987781 1.0 5.0 0.300000011921 0.20000000298 3.5 0.300000011921
1 43 38 2 15 102.0 2113.5 0.0509999990463 1.0 5.0 0.300000011921 0.20000000298 3.5 0.300000011921
1 42 38 2 16 90.0 2108.5 0.0469999983907 1.0 5.0 0.300000011921 0.20000000298 3.5 0.300000011921
1 41 38 2 17 102.0 2104.5 0.0370000004768 1.0 5.0 0.300000011921 0.20000000298 3.5 0.300000011921
1 40 38 2 18 30.0 2102.5 0.0630000010133 1.0 5.0 0.300000011921 0.20000000298 3.5 0.300000011921
1 40 39 2 19 60.0 2097.5 0.0630000010133 1.0 5.0 0.300000011921 0.20000000298 3.5 0.300000011921
1 39 39 2 20 102.0 2094.5 0.0489999987185 1.0 5.0 0.300000011921 0.20000000298 3.5 0.300000011921
1 38 39 2 21 102.0 2088.5 0.0689999982715 1.0 5.0 0.300000011921 0.20000000298 3.5 0.300000011921
1 37 40 2 22 102.0 2080.5 0.0769999995828 1.0 5.0 0.300000011921 0.20000000298 3.5 0.300000011921
1 36 40 2 23 60.0 2074.5 0.0630000010133 1.0 5.0 0.300000011921 0.20000000298 3.5 0.300000011921
1 36 41 2 24 30.0 2072.5 0.0450000017881 1.0 5.0 0.300000011921 0.20000000298 3.5 0.300000011921
1 35 41 2 25 102.0 2069.5 0.0370000004768 1.0 5.0 0.300000011921 0.20000000298 3.5 0.300000011921
1 34 41 2 26 90.0 2066.5 0.0430000014603 1.0 5.0 0.300000011921 0.20000000298 3.5 0.300000011921
1 33 41 2 27 90.0 2061.5 0.0480000004172 1.0 5.0 0.300000011921 0.20000000298 3.5 0.300000011921
1 32 41 2 28 102.0 2057.5 0.0540000014007 1.0 5.0 0.300000011921 0.20000000298 3.5 0.300000011921
1 31 42 2 29 114.0 2049.5 0.0649999976158 1.0 5.0 0.300000011921 0.20000000298 3.5 0.300000011921
1 31 33 3 1 90.0 2116.5 0.0670000016689 1.0 5.0 0.300000011921 0.20000000298 3.5 0.300000011921
1 31 34 3 2 90.0 2110.5 0.0909999981523 1.0 5.0 0.300000011921 0.20000000298 3.5 0.300000011921
1 31 35 3 3 102.0 2099.5 0.0909999981523 1.0 5.0 0.300000011921 0.20000000298 3.5 0.300000011921
1 31 36 3 4 102.0 2092.5 0.0710000023246 1.0 5.0 0.300000011921 0.20000000298 3.5 0.300000011921
1 31 37 3 5 90.0 2085.5 0.0729999989271 1.0 5.0 0.300000011921 0.20000000298 3.5 0.300000011921
1 48 48 4 1 90.0 2113.5 0.0209999997169 1.0 5.0 0.300000011921 0.20000000298 3.5 0.300000011921
1 47 48 4 2 102.0 2111.5 0.0309999994934 1.0 5.0 0.300000011921 0.20000000298 3.5 0.300000011921
1 46 48 4 3 30.0 2109.5 0.0450000017881 1.0 5.0 0.300000011921 0.20000000298 3.5 0.300000011921
1 46 47 4 4 60.0 2107.5 0.0329999998212 1.0 5.0 0.300000011921 0.20000000298 3.5 0.300000011921
1 45 47 4 5 90.0 2105.5 0.0289999991655 1.0 5.0 0.300000011921 0.20000000298 3.5 0.300000011921
1 44 47 4 6 102.0 2102.5 0.0419999994338 1.0 5.0 0.300000011921 0.20000000298 3.5 0.300000011921
1 43 47 4 7 90.0 2097.5 0.0750000029802 1.0 5.0 0.300000011921 0.20000000298 3.5 0.300000011921
1 42 47 4 8 90.0 2088.5 0.103000000119 1.0 5.0 0.300000011921 0.20000000298 3.5 0.300000011921
1 41 47 4 9 60.0 2080.5 0.0920000001788 1.0 5.0 0.300000011921 0.20000000298 3.5 0.300000011921
1 41 48 4 10 30.0 2077.5 0.0949999988079 1.0 5.0 0.300000011921 0.20000000298 3.5 0.300000011921
1 40 48 4 11 90.0 2070.5 0.0869999974966 1.0 5.0 0.300000011921 0.20000000298 3.5 0.300000011921
1 39 48 4 12 90.0 2064.5 0.082999996841 1.0 5.0 0.300000011921 0.20000000298 3.5 0.300000011921
1 38 47 4 13 90.0 2055.5 0.0939999967813 1.0 5.0 0.300000011921 0.20000000298 3.5 0.300000011921
1 37 47 4 14 90.0 2047.5 0.101999998093 1.0 5.0 0.300000011921 0.20000000298 3.5 0.300000011921
1 36 48 4 15 102.0 2036.5 0.0930000022054 1.0 5.0 0.300000011921 0.20000000298 3.5 0.300000011921
1 35 48 4 16 30.0 2032.5 0.0810000002384 1.0 5.0 0.300000011921 0.20000000298 3.5 0.300000011921
1 35 49 4 17 60.0 2027.5 0.0989999994636 1.0 5.0 0.300000011921 0.20000000298 3.5 0.300000011921
1 34 49 4 18 72.0 2021.5 0.0769999995828 1.0 5.0 0.300000011921 0.20000000298 3.5 0.300000011921
1 34 50 4 19 30.0 2018.5 0.0570000000298 1.0 5.0 0.300000011921 0.20000000298 3.5 0.300000011921
1 33 50 4 20 114.0 2014.5 0.0560000017285 1.0 5.0 0.300000011921 0.20000000298 3.5 0.300000011921
1 55 72 5 1 90.0 2001.5 0.0439999997616 1.0 5.0 0.300000011921 0.20000000298 3.5 0.300000011921
1 54 72 5 2 90.0 1997.5 0.0500000007451 1.0 5.0 0.300000011921 0.20000000298 3.5 0.300000011921
1 53 72 5 3 90.0 1992.5 0.0750000029802 1.0 5.0 0.300000011921 0.20000000298 3.5 0.300000011921
1 52 72 5 4 102.0 1983.5 0.0759999975562 1.0 5.0 0.300000011921 0.20000000298 3.5 0.300000011921
1 51 72 5 5 102.0 1977.5 0.0740000009537 1.0 5.0 0.300000011921 0.20000000298 3.5 0.300000011921
1 50 73 5 6 102.0 1968.5 0.0740000009537 1.0 5.0 0.300000011921 0.20000000298 3.5 0.300000011921
1 49 73 5 7 102.0 1962.5 0.0710000023246 1.0 5.0 0.300000011921 0.20000000298 3.5 0.300000011921
1 48 73 5 8 30.0 1956.5 0.0719999969006 1.0 5.0 0.300000011921 0.20000000298 3.5 0.300000011921
1 48 74 5 9 60.0 1954.5 0.0560000017285 1.0 5.0 0.300000011921 0.20000000298 3.5 0.300000011921
1 47 74 5 10 102.0 1949.5 0.0599999986589 1.0 5.0 0.300000011921 0.20000000298 3.5 0.300000011921
1 46 75 5 11 102.0 1943.5 0.0480000004172 1.0 5.0 0.300000011921 0.20000000298 3.5 0.300000011921
1 45 75 5 12 30.0 1941.5 0.0430000014603 1.0 5.0 0.300000011921 0.20000000298 3.5 0.300000011921
1 45 76 5 13 72.0 1938.5 0.0489999987185 1.0 5.0 0.300000011921 0.20000000298 3.5 0.300000011921
1 44 76 5 14 30.0 1936.5 0.0390000008047 1.0 5.0 0.300000011921 0.20000000298 3.5 0.300000011921
1 45 62 6 1 90.0 2004.5 0.0419999994338 1.0 5.0 0.300000011921 0.20000000298 3.5 0.300000011921
1 44 62 6 2 102.0 1999.5 0.0560000017285 1.0 5.0 0.300000011921 0.20000000298 3.5 0.300000011921
1 43 62 6 3 30.0 1995.5 0.0810000002384 1.0 5.0 0.300000011921 0.20000000298 3.5 0.300000011921
1 43 63 6 4 60.0 1991.5 0.0710000023246 1.0 5.0 0.300000011921 0.20000000298 3.5 0.300000011921
1 42 63 6 5 102.0 1985.5 0.0680000036955 1.0 5.0 0.300000011921 0.20000000298 3.5 0.300000011921
1 41 63 6 6 90.0 1979.5 0.0680000036955 1.0 5.0 0.300000011921 0.20000000298 3.5 0.300000011921
1 40 63 6 7 102.0 1973.5 0.0680000036955 1.0 5.0 0.300000011921 0.20000000298 3.5 0.300000011921
1 24 55 7 1 60.0 2033.5 0.0439999997616 1.0 5.0 0.300000011921 0.20000000298 3.5 0.300000011921
1 25 55 7 2 30.0 2031.5 0.0780000016093 1.0 5.0 0.300000011921 0.20000000298 3.5 0.300000011921
1 25 56 7 3 60.0 2026.5 0.0710000023246 1.0 5.0 0.300000011921 0.20000000298 3.5 0.300000011921
1 26 56 7 4 102.0 2022.5 0.0509999990463 1.0 5.0 0.300000011921 0.20000000298 3.5 0.300000011921
1 27 56 7 5 90.0 2017.5 0.0540000014007 1.0 5.0 0.300000011921 0.20000000298 3.5 0.300000011921
1 28 57 7 6 90.0 2012.5 0.0560000017285 1.0 5.0 0.300000011921 0.20000000298 3.5 0.300000011921
1 29 57 7 7 90.0 2007.5 0.0560000017285 1.0 5.0 0.300000011921 0.20000000298 3.5 0.300000011921
1 30 57 7 8 90.0 2002.5 0.0500000007451 1.0 5.0 0.300000011921 0.20000000298 3.5 0.300000011921
1 31 57 7 9 90.0 1998.5 0.0480000004172 1.0 5.0 0.300000011921 0.20000000298 3.5 0.300000011921
1 32 57 7 10 102.0 1993.5 0.0379999987781 1.0 5.0 0.300000011921 0.20000000298 3.5 0.300000011921
1 33 57 7 11 72.0 1991.5 0.0219999998808 1.0 5.0 0.300000011921 0.20000000298 3.5 0.300000011921
1 33 58 7 12 30.0 1990.5 0.0489999987185 1.0 5.0 0.300000011921 0.20000000298 3.5 0.300000011921
1 34 58 7 13 72.0 1986.5 0.0590000003576 1.0 5.0 0.300000011921 0.20000000298 3.5 0.300000011921
1 34 59 7 14 30.0 1984.5 0.0430000014603 1.0 5.0 0.300000011921 0.20000000298 3.5 0.300000011921
1 35 59 7 15 102.0 1981.5 0.0430000014603 1.0 5.0 0.300000011921 0.20000000298 3.5 0.300000011921
1 36 59 7 16 90.0 1977.5 0.0450000017881 1.0 5.0 0.300000011921 0.20000000298 3.5 0.300000011921
1 37 60 7 17 114.0 1972.5 0.0489999987185 1.0 5.0 0.300000011921 0.20000000298 3.5 0.300000011921
1 23 71 8 1 90.0 2052.5 0.0419999994338 1.0 5.0 0.300000011921 0.20000000298 3.5 0.300000011921
1 24 71 8 2 102.0 2048.5 0.0309999994934 1.0 5.0 0.300000011921 0.20000000298 3.5 0.300000011921
1 25 71 8 3 90.0 2046.5 0.01600000076 1.0 5.0 0.300000011921 0.20000000298 3.5 0.300000011921
1 26 71 8 4 102.0 2045.5 0.00999999977648 1.0 5.0 0.300000011921 0.20000000298 3.5 0.300000011921
1 27 72 8 5 102.0 2044.5 0.0120000001043 1.0 5.0 0.300000011921 0.20000000298 3.5 0.300000011921
1 27 73 8 6 30.0 2043.5 0.0149999996647 1.0 5.0 0.300000011921 0.20000000298 3.5 0.300000011921
1 28 73 8 7 102.0 2042.5 0.0120000001043 1.0 5.0 0.300000011921 0.20000000298 3.5 0.300000011921
1 29 73 8 8 90.0 2041.5 0.0109999999404 1.0 5.0 0.300000011921 0.20000000298 3.5 0.300000011921
1 30 73 8 9 90.0 2040.5 0.0219999998808 1.0 5.0 0.300000011921 0.20000000298 3.5 0.300000011921
1 31 73 8 10 90.0 2037.5 0.0439999997616 1.0 5.0 0.300000011921 0.20000000298 3.5 0.300000011921
1 32 73 8 11 90.0 2032.5 0.0560000017285 1.0 5.0 0.300000011921 0.20000000298 3.5 0.300000011921
1 33 73 8 12 90.0 2027.5 0.0599999986589 1.0 5.0 0.300000011921 0.20000000298 3.5 0.300000011921
1 34 73 8 13 30.0 2023.5 0.11400000006 1.0 5.0 0.300000011921 0.20000000298 3.5 0.300000011921
1 34 74 8 14 60.0 2015.5 0.10000000149 1.0 5.0 0.300000011921 0.20000000298 3.5 0.300000011921
1 35 74 8 15 90.0 2011.5 0.0670000016689 1.0 5.0 0.300000011921 0.20000000298 3.5 0.300000011921
1 36 74 8 16 30.0 2006.5 0.0860000029206 1.0 5.0 0.300000011921 0.20000000298 3.5 0.300000011921
1 36 73 8 17 60.0 2002.5 0.127000004053 1.0 5.0 0.300000011921 0.20000000298 3.5 0.300000011921
1 37 73 8 18 102.0 1990.5 0.141000002623 1.0 5.0 0.300000011921 0.20000000298 3.5 0.300000011921
1 38 72 8 19 90.0 1977.5 0.118000000715 1.0 5.0 0.300000011921 0.20000000298 3.5 0.300000011921
1 39 72 8 20 90.0 1968.5 0.10000000149 1.0 5.0 0.300000011921 0.20000000298 3.5 0.300000011921
1 40 72 8 21 90.0 1959.5 0.082999996841 1.0 5.0 0.300000011921 0.20000000298 3.5 0.300000011921
1 41 72 8 22 90.0 1953.5 0.0869999974966 1.0 5.0 0.300000011921 0.20000000298 3.5 0.300000011921
1 42 72 8 23 30.0 1946.5 0.10000000149 1.0 5.0 0.300000011921 0.20000000298 3.5 0.300000011921
1 42 73 8 24 30.0 1944.5 0.0670000016689 1.0 5.0 0.300000011921 0.20000000298 3.5 0.300000011921
1 31 38 9 1 90.0 2077.5 0.0560000017285 1.0 5.0 0.300000011921 0.20000000298 3.5 0.300000011921
1 31 39 9 2 90.0 2072.5 0.082999996841 1.0 5.0 0.300000011921 0.20000000298 3.5 0.300000011921
1 31 40 9 3 90.0 2062.5 0.10000000149 1.0 5.0 0.300000011921 0.20000000298 3.5 0.300000011921
1 31 41 9 4 90.0 2054.5 0.0759999975562 1.0 5.0 0.300000011921 0.20000000298 3.5 0.300000011921
1 31 42 9 5 72.0 2049.5 0.0450000017881 1.0 5.0 0.300000011921 0.20000000298 3.5 0.300000011921
1 30 42 9 6 30.0 2048.5 0.019999999553 1.0 5.0 0.300000011921 0.20000000298 3.5 0.300000011921
1 30 43 10 1 90.0 2042.5 0.0529999993742 1.0 5.0 0.300000011921 0.20000000298 3.5 0.300000011921
1 30 44 10 2 60.0 2038.5 0.0419999994338 1.0 5.0 0.300000011921 0.20000000298 3.5 0.300000011921
1 29 44 10 3 30.0 2037.5 0.0379999987781 1.0 5.0 0.300000011921 0.20000000298 3.5 0.300000011921
1 29 45 10 4 90.0 2034.5 0.0469999983907 1.0 5.0 0.300000011921 0.20000000298 3.5 0.300000011921
1 29 46 10 5 90.0 2030.5 0.0469999983907 1.0 5.0 0.300000011921 0.20000000298 3.5 0.300000011921
1 29 47 10 6 30.0 2027.5 0.0570000000298 1.0 5.0 0.300000011921 0.20000000298 3.5 0.300000011921
1 30 47 10 7 60.0 2024.5 0.0399999991059 1.0 5.0 0.300000011921 0.20000000298 3.5 0.300000011921
1 30 48 10 8 102.0 2022.5 0.0320000015199 1.0 5.0 0.300000011921 0.20000000298 3.5 0.300000011921
1 31 49 10 9 114.0 2018.5 0.0450000017881 1.0 5.0 0.300000011921 0.20000000298 3.5 0.300000011921
1 32 50 10 10 114.0 2012.5 0.0529999993742 1.0 5.0 0.300000011921 0.20000000298 3.5 0.300000011921
1 32 51 11 1 90.0 2007.5 0.0419999994338 1.0 5.0 0.300000011921 0.20000000298 3.5 0.300000011921
1 33 52 11 2 102.0 2003.5 0.0489999987185 1.0 5.0 0.300000011921 0.20000000298 3.5 0.300000011921
1 33 53 11 3 30.0 1999.5 0.0939999967813 1.0 5.0 0.300000011921 0.20000000298 3.5 0.300000011921
1 34 53 11 4 72.0 1992.5 0.0850000008941 1.0 5.0 0.300000011921 0.20000000298 3.5 0.300000011921
1 34 54 11 5 60.0 1989.5 0.0359999984503 1.0 5.0 0.300000011921 0.20000000298 3.5 0.300000011921
1 35 54 11 6 30.0 1988.5 0.0270000007004 1.0 5.0 0.300000011921 0.20000000298 3.5 0.300000011921
1 35 55 11 7 102.0 1986.5 0.0299999993294 1.0 5.0 0.300000011921 0.20000000298 3.5 0.300000011921
1 35 56 11 8 102.0 1983.5 0.0329999998212 1.0 5.0 0.300000011921 0.20000000298 3.5 0.300000011921
1 36 57 11 9 114.0 1979.5 0.0240000002086 1.0 5.0 0.300000011921 0.20000000298 3.5 0.300000011921
1 36 58 11 10 90.0 1978.5 0.0170000009239 1.0 5.0 0.300000011921 0.20000000298 3.5 0.300000011921
1 36 59 11 11 60.0 1976.5 0.0250000003725 1.0 5.0 0.300000011921 0.20000000298 3.5 0.300000011921
1 37 59 11 12 30.0 1975.5 0.0209999997169 1.0 5.0 0.300000011921 0.20000000298 3.5 0.300000011921
1 37 60 11 13 72.0 1974.5 0.0149999996647 1.0 5.0 0.300000011921 0.20000000298 3.5 0.300000011921
1 38 60 11 14 30.0 1973.5 0.00999999977648 1.0 5.0 0.300000011921 0.20000000298 3.5 0.300000011921
1 38 61 12 1 102.0 1971.5 0.00999999977648 1.0 5.0 0.300000011921 0.20000000298 3.5 0.300000011921
1 38 62 12 2 102.0 1970.5 0.0120000001043 1.0 5.0 0.300000011921 0.20000000298 3.5 0.300000011921
1 38 63 12 3 30.0 1969.5 0.0179999992251 1.0 5.0 0.300000011921 0.20000000298 3.5 0.300000011921
1 39 63 12 4 60.0 1968.5 0.0219999998808 1.0 5.0 0.300000011921 0.20000000298 3.5 0.300000011921
1 39 64 13 1 120.0 1967.5 0.0170000009239 1.0 5.0 0.300000011921 0.20000000298 3.5 0.300000011921
1 39 65 13 2 60.0 1966.5 0.0189999993891 1.0 5.0 0.300000011921 0.20000000298 3.5 0.300000011921
1 40 65 13 3 30.0 1965.5 0.00999999977648 1.0 5.0 0.300000011921 0.20000000298 3.5 0.300000011921
1 40 66 13 4 90.0 1964.5 0.0130000002682 1.0 5.0 0.300000011921 0.20000000298 3.5 0.300000011921
1 40 67 13 5 90.0 1962.5 0.0219999998808 1.0 5.0 0.300000011921 0.20000000298 3.5 0.300000011921
1 40 68 13 6 90.0 1960.5 0.0170000009239 1.0 5.0 0.300000011921 0.20000000298 3.5 0.300000011921
1 41 69 13 7 90.0 1959.5 0.0209999997169 1.0 5.0 0.300000011921 0.20000000298 3.5 0.300000011921
1 41 70 13 8 114.0 1956.5 0.0430000014603 1.0 5.0 0.300000011921 0.20000000298 3.5 0.300000011921
1 42 71 13 9 102.0 1950.5 0.0439999997616 1.0 5.0 0.300000011921 0.20000000298 3.5 0.300000011921
1 42 72 13 10 90.0 1947.5 0.0379999987781 1.0 5.0 0.300000011921 0.20000000298 3.5 0.300000011921
1 42 73 13 11 30.0 1944.5 0.0500000007451 1.0 5.0 0.300000011921 0.20000000298 3.5 0.300000011921
1 42 73 14 1 30.0 1943.5 0.0329999998212 1.0 5.0 0.300000011921 0.20000000298 3.5 0.300000011921
1 43 73 14 2 30.0 1942.5 0.0209999997169 1.0 5.0 0.300000011921 0.20000000298 3.5 0.300000011921
1 43 74 14 3 102.0 1941.5 0.019999999553 1.0 5.0 0.300000011921 0.20000000298 3.5 0.300000011921
1 43 75 14 4 60.0 1939.5 0.0240000002086 1.0 5.0 0.300000011921 0.20000000298 3.5 0.300000011921
1 44 75 14 5 30.0 1938.5 0.0289999991655 1.0 5.0 0.300000011921 0.20000000298 3.5 0.300000011921
1 44 76 14 6 90.0 1936.5 0.019999999553 1.0 5.0 0.300000011921 0.20000000298 3.5 0.300000011921
1 44 77 15 1 90.0 1935.5 0.0109999999404 1.0 5.0 0.300000011921 0.20000000298 3.5 0.300000011921
1 44 78 15 2 90.0 1934.5 0.0240000002086 1.0 5.0 0.300000011921 0.20000000298 3.5 0.300000011921
1 44 79 15 3 60.0 1931.5 0.0329999998212 1.0 5.0 0.300000011921 0.20000000298 3.5 0.300000011921
1 45 79 15 4 30.0 1930.5 0.0219999998808 1.0 5.0 0.300000011921 0.20000000298 3.5 0.300000011921
15 0 0 0
1 1 9 0 0.0 0.0 0.0 0.0 0.0399999991059 
3.0 
3.0 
2 1 10 0 0.0 0.0 0.0 0.0 0.0399999991059 
3.0 
3.0 
3 1 9 0 0.0 0.0 0.0 0.0 0.0399999991059 
3.0 
3.0 
4 1 11 0 0.0 0.0 0.0 0.0 0.0399999991059 
3.0 
3.0 
5 1 15 0 0.0 0.0 0.0 0.0 0.0399999991059 
3.0 
3.0 
6 1 13 0 0.0 0.0 0.0 0.0 0.0399999991059 
3.0 
3.0 
7 1 12 0 0.0 0.0 0.0 0.0 0.0399999991059 
3.0 
3.0 
8 1 14 0 0.0 0.0 0.0 0.0 0.0399999991059 
3.0 
3.0 
9 1 10 0 0.0 0.0 0.0 0.0 0.0399999991059 
3.0 
3.0 
10 1 11 0 0.0 0.0 0.0 0.0 0.0399999991059 
3.0 
3.0 
11 1 12 0 0.0 0.0 0.0 0.0 0.0399999991059 
3.0 
3.0 
12 1 13 0 0.0 0.0 0.0 0.0 0.0399999991059 
3.0 
3.0 
13 1 14 0 0.0 0.0 0.0 0.0 0.0399999991059 
3.0 
3.0 
14 1 15 0 0.0 0.0 0.0 0.0 0.0399999991059 
3.0 
3.0 
15 1 0 0 0.0 0.0 0.0 0.0 0.0399999991059 
3.0 
3.0 
-1 0 0 0
