# File generated by Flopy version 3.5.0.dev0 on 10/30/2023 at 09:02:45.
BEGIN options
END options

BEGIN griddata
  icelltype  LAYERED
    CONSTANT  0
    CONSTANT  0
    CONSTANT  0
  k  LAYERED
    CONSTANT      20.00000000
    INTERNAL  FACTOR  1.0
          20.00000000      20.00000000      20.00000000      20.00000000      20.00000000      20.00000000      20.00000000      20.00000000      20.00000000      20.00000000
          20.00000000       0.01000000       0.01000000       0.01000000       0.01000000       0.01000000       0.01000000       0.01000000       0.01000000      20.00000000
          20.00000000       0.01000000       0.01000000       0.01000000       0.01000000       0.01000000       0.01000000       0.01000000       0.01000000      20.00000000
          20.00000000       0.01000000       0.01000000       0.01000000       0.01000000       0.01000000       0.01000000       0.01000000       0.01000000      20.00000000
          20.00000000       0.01000000       0.01000000       0.01000000       0.01000000       0.01000000       0.01000000       0.01000000       0.01000000      20.00000000
          20.00000000       0.01000000       0.01000000       0.01000000       0.01000000       0.01000000       0.01000000       0.01000000       0.01000000      20.00000000
          20.00000000       0.01000000       0.01000000       0.01000000       0.01000000       0.01000000       0.01000000       0.01000000       0.01000000      20.00000000
          20.00000000       0.01000000       0.01000000       0.01000000       0.01000000       0.01000000       0.01000000       0.01000000       0.01000000      20.00000000
          20.00000000       0.01000000       0.01000000       0.01000000       0.01000000       0.01000000       0.01000000       0.01000000       0.01000000      20.00000000
          20.00000000      20.00000000      20.00000000      20.00000000      20.00000000      20.00000000      20.00000000      20.00000000      20.00000000      20.00000000
    CONSTANT       5.00000000
  k33  LAYERED
    CONSTANT  1.00000000E+06
    CONSTANT  7.50000000E-05
    CONSTANT  1.00000000E+06
END griddata

