# MODFLOW-USG Block-Centered Transport (BCT) Package
 1 0 1 0 5 1 0   -1.000000e+00 1.000000e-07    1 0 1.028820e-06 0 0  0   0  0  0  1 TIMEWEIGHT 1.000000 
CONSTANT  1              ICBUND Layer 1
CONSTANT  1              ICBUND Layer 2
CONSTANT  1              ICBUND Layer 3
CONSTANT  1              ICBUND Layer 4
CONSTANT  1              ICBUND Layer 5
CONSTANT  1              ICBUND Layer 6
CONSTANT  1              ICBUND Layer 7
CONSTANT  1              ICBUND Layer 8
CONSTANT  1              ICBUND Layer 9
CONSTANT  1              ICBUND Layer 10
CONSTANT  1              ICBUND Layer 11
CONSTANT  1              ICBUND Layer 12
CONSTANT  1              ICBUND Layer 13
CONSTANT  1              ICBUND Layer 14
CONSTANT  1              ICBUND Layer 15
CONSTANT  1              ICBUND Layer 16
CONSTANT  1              ICBUND Layer 17
CONSTANT  1              ICBUND Layer 18
CONSTANT  1              ICBUND Layer 19
CONSTANT  1              ICBUND Layer 20
CONSTANT  1              ICBUND Layer 21
CONSTANT  1              ICBUND Layer 22
CONSTANT  1              ICBUND Layer 23
CONSTANT  1              ICBUND Layer 24
CONSTANT  1              ICBUND Layer 25
CONSTANT  1              ICBUND Layer 26
CONSTANT  1              ICBUND Layer 27
CONSTANT  1              ICBUND Layer 28
CONSTANT  1              ICBUND Layer 29
CONSTANT  1              ICBUND Layer 30
CONSTANT  1              ICBUND Layer 31
CONSTANT  1              ICBUND Layer 32
CONSTANT  1              ICBUND Layer 33
CONSTANT  1              ICBUND Layer 34
CONSTANT  1              ICBUND Layer 35
CONSTANT  1              ICBUND Layer 36
CONSTANT  1              ICBUND Layer 37
CONSTANT  1              ICBUND Layer 38
CONSTANT  1              ICBUND Layer 39
CONSTANT  1              ICBUND Layer 40
CONSTANT  1              ICBUND Layer 41
CONSTANT  1              ICBUND Layer 42
CONSTANT  1              ICBUND Layer 43
CONSTANT  1              ICBUND Layer 44
CONSTANT  1              ICBUND Layer 45
CONSTANT  1              ICBUND Layer 46
CONSTANT  1              ICBUND Layer 47
CONSTANT  1              ICBUND Layer 48
CONSTANT  1              ICBUND Layer 49
CONSTANT  1              ICBUND Layer 50
CONSTANT  1              ICBUND Layer 51
CONSTANT  1              ICBUND Layer 52
CONSTANT  1              ICBUND Layer 53
CONSTANT  1              ICBUND Layer 54
CONSTANT  1              ICBUND Layer 55
CONSTANT  1              ICBUND Layer 56
CONSTANT  1              ICBUND Layer 57
CONSTANT  1              ICBUND Layer 58
CONSTANT  1              ICBUND Layer 59
CONSTANT  1              ICBUND Layer 60
CONSTANT  1              ICBUND Layer 61
CONSTANT  1              ICBUND Layer 62
CONSTANT  1              ICBUND Layer 63
CONSTANT  1              ICBUND Layer 64
CONSTANT  1              ICBUND Layer 65
CONSTANT  1              ICBUND Layer 66
CONSTANT  1              ICBUND Layer 67
CONSTANT  1              ICBUND Layer 68
CONSTANT  1              ICBUND Layer 69
CONSTANT  1              ICBUND Layer 70
CONSTANT  1              ICBUND Layer 71
CONSTANT  1              ICBUND Layer 72
CONSTANT  1              ICBUND Layer 73
CONSTANT  1              ICBUND Layer 74
CONSTANT  1              ICBUND Layer 75
CONSTANT  1              ICBUND Layer 76
CONSTANT  1              ICBUND Layer 77
CONSTANT  1              ICBUND Layer 78
CONSTANT  1              ICBUND Layer 79
CONSTANT  1              ICBUND Layer 80
CONSTANT  1              ICBUND Layer 81
CONSTANT  1              ICBUND Layer 82
CONSTANT  1              ICBUND Layer 83
CONSTANT  1              ICBUND Layer 84
CONSTANT  1              ICBUND Layer 85
CONSTANT  1              ICBUND Layer 86
CONSTANT  1              ICBUND Layer 87
CONSTANT  1              ICBUND Layer 88
CONSTANT  1              ICBUND Layer 89
CONSTANT  1              ICBUND Layer 90
CONSTANT  1              ICBUND Layer 91
CONSTANT  1              ICBUND Layer 92
CONSTANT  1              ICBUND Layer 93
CONSTANT  1              ICBUND Layer 94
CONSTANT  1              ICBUND Layer 95
CONSTANT  1              ICBUND Layer 96
CONSTANT  1              ICBUND Layer 97
CONSTANT  1              ICBUND Layer 98
CONSTANT  1              ICBUND Layer 99
CONSTANT  1              ICBUND Layer 100
CONSTANT  1              ICBUND Layer 101
CONSTANT  1              ICBUND Layer 102
CONSTANT  1              ICBUND Layer 103
CONSTANT  1              ICBUND Layer 104
CONSTANT  1              ICBUND Layer 105
CONSTANT  1              ICBUND Layer 106
CONSTANT  1              ICBUND Layer 107
CONSTANT  1              ICBUND Layer 108
CONSTANT  1              ICBUND Layer 109
CONSTANT  1              ICBUND Layer 110
CONSTANT  1              ICBUND Layer 111
CONSTANT  1              ICBUND Layer 112
CONSTANT  1              ICBUND Layer 113
CONSTANT  1              ICBUND Layer 114
CONSTANT  1              ICBUND Layer 115
CONSTANT  1              ICBUND Layer 116
CONSTANT  1              ICBUND Layer 117
CONSTANT  1              ICBUND Layer 118
CONSTANT  1              ICBUND Layer 119
CONSTANT  1              ICBUND Layer 120
INTERNAL  1.000000e+00  (FREE)  -1  Porosity Layer 1
 3.500000e-01
INTERNAL  1.000000e+00  (FREE)  -1  Porosity Layer 2
 3.500000e-01
INTERNAL  1.000000e+00  (FREE)  -1  Porosity Layer 3
 3.500000e-01
INTERNAL  1.000000e+00  (FREE)  -1  Porosity Layer 4
 3.500000e-01
INTERNAL  1.000000e+00  (FREE)  -1  Porosity Layer 5
 3.500000e-01
INTERNAL  1.000000e+00  (FREE)  -1  Porosity Layer 6
 3.500000e-01
INTERNAL  1.000000e+00  (FREE)  -1  Porosity Layer 7
 3.500000e-01
INTERNAL  1.000000e+00  (FREE)  -1  Porosity Layer 8
 3.500000e-01
INTERNAL  1.000000e+00  (FREE)  -1  Porosity Layer 9
 3.500000e-01
INTERNAL  1.000000e+00  (FREE)  -1  Porosity Layer 10
 3.500000e-01
INTERNAL  1.000000e+00  (FREE)  -1  Porosity Layer 11
 3.500000e-01
INTERNAL  1.000000e+00  (FREE)  -1  Porosity Layer 12
 3.500000e-01
INTERNAL  1.000000e+00  (FREE)  -1  Porosity Layer 13
 3.500000e-01
INTERNAL  1.000000e+00  (FREE)  -1  Porosity Layer 14
 3.500000e-01
INTERNAL  1.000000e+00  (FREE)  -1  Porosity Layer 15
 3.500000e-01
INTERNAL  1.000000e+00  (FREE)  -1  Porosity Layer 16
 3.500000e-01
INTERNAL  1.000000e+00  (FREE)  -1  Porosity Layer 17
 3.500000e-01
INTERNAL  1.000000e+00  (FREE)  -1  Porosity Layer 18
 3.500000e-01
INTERNAL  1.000000e+00  (FREE)  -1  Porosity Layer 19
 3.500000e-01
INTERNAL  1.000000e+00  (FREE)  -1  Porosity Layer 20
 3.500000e-01
INTERNAL  1.000000e+00  (FREE)  -1  Porosity Layer 21
 3.500000e-01
INTERNAL  1.000000e+00  (FREE)  -1  Porosity Layer 22
 3.500000e-01
INTERNAL  1.000000e+00  (FREE)  -1  Porosity Layer 23
 3.500000e-01
INTERNAL  1.000000e+00  (FREE)  -1  Porosity Layer 24
 3.500000e-01
INTERNAL  1.000000e+00  (FREE)  -1  Porosity Layer 25
 3.500000e-01
INTERNAL  1.000000e+00  (FREE)  -1  Porosity Layer 26
 3.500000e-01
INTERNAL  1.000000e+00  (FREE)  -1  Porosity Layer 27
 3.500000e-01
INTERNAL  1.000000e+00  (FREE)  -1  Porosity Layer 28
 3.500000e-01
INTERNAL  1.000000e+00  (FREE)  -1  Porosity Layer 29
 3.500000e-01
INTERNAL  1.000000e+00  (FREE)  -1  Porosity Layer 30
 3.500000e-01
INTERNAL  1.000000e+00  (FREE)  -1  Porosity Layer 31
 3.500000e-01
INTERNAL  1.000000e+00  (FREE)  -1  Porosity Layer 32
 3.500000e-01
INTERNAL  1.000000e+00  (FREE)  -1  Porosity Layer 33
 3.500000e-01
INTERNAL  1.000000e+00  (FREE)  -1  Porosity Layer 34
 3.500000e-01
INTERNAL  1.000000e+00  (FREE)  -1  Porosity Layer 35
 3.500000e-01
INTERNAL  1.000000e+00  (FREE)  -1  Porosity Layer 36
 3.500000e-01
INTERNAL  1.000000e+00  (FREE)  -1  Porosity Layer 37
 3.500000e-01
INTERNAL  1.000000e+00  (FREE)  -1  Porosity Layer 38
 3.500000e-01
INTERNAL  1.000000e+00  (FREE)  -1  Porosity Layer 39
 3.500000e-01
INTERNAL  1.000000e+00  (FREE)  -1  Porosity Layer 40
 3.500000e-01
INTERNAL  1.000000e+00  (FREE)  -1  Porosity Layer 41
 3.500000e-01
INTERNAL  1.000000e+00  (FREE)  -1  Porosity Layer 42
 3.500000e-01
INTERNAL  1.000000e+00  (FREE)  -1  Porosity Layer 43
 3.500000e-01
INTERNAL  1.000000e+00  (FREE)  -1  Porosity Layer 44
 3.500000e-01
INTERNAL  1.000000e+00  (FREE)  -1  Porosity Layer 45
 3.500000e-01
INTERNAL  1.000000e+00  (FREE)  -1  Porosity Layer 46
 3.500000e-01
INTERNAL  1.000000e+00  (FREE)  -1  Porosity Layer 47
 3.500000e-01
INTERNAL  1.000000e+00  (FREE)  -1  Porosity Layer 48
 3.500000e-01
INTERNAL  1.000000e+00  (FREE)  -1  Porosity Layer 49
 3.500000e-01
INTERNAL  1.000000e+00  (FREE)  -1  Porosity Layer 50
 3.500000e-01
INTERNAL  1.000000e+00  (FREE)  -1  Porosity Layer 51
 3.500000e-01
INTERNAL  1.000000e+00  (FREE)  -1  Porosity Layer 52
 3.500000e-01
INTERNAL  1.000000e+00  (FREE)  -1  Porosity Layer 53
 3.500000e-01
INTERNAL  1.000000e+00  (FREE)  -1  Porosity Layer 54
 3.500000e-01
INTERNAL  1.000000e+00  (FREE)  -1  Porosity Layer 55
 3.500000e-01
INTERNAL  1.000000e+00  (FREE)  -1  Porosity Layer 56
 3.500000e-01
INTERNAL  1.000000e+00  (FREE)  -1  Porosity Layer 57
 3.500000e-01
INTERNAL  1.000000e+00  (FREE)  -1  Porosity Layer 58
 3.500000e-01
INTERNAL  1.000000e+00  (FREE)  -1  Porosity Layer 59
 3.500000e-01
INTERNAL  1.000000e+00  (FREE)  -1  Porosity Layer 60
 3.500000e-01
INTERNAL  1.000000e+00  (FREE)  -1  Porosity Layer 61
 3.500000e-01
INTERNAL  1.000000e+00  (FREE)  -1  Porosity Layer 62
 3.500000e-01
INTERNAL  1.000000e+00  (FREE)  -1  Porosity Layer 63
 3.500000e-01
INTERNAL  1.000000e+00  (FREE)  -1  Porosity Layer 64
 3.500000e-01
INTERNAL  1.000000e+00  (FREE)  -1  Porosity Layer 65
 3.500000e-01
INTERNAL  1.000000e+00  (FREE)  -1  Porosity Layer 66
 3.500000e-01
INTERNAL  1.000000e+00  (FREE)  -1  Porosity Layer 67
 3.500000e-01
INTERNAL  1.000000e+00  (FREE)  -1  Porosity Layer 68
 3.500000e-01
INTERNAL  1.000000e+00  (FREE)  -1  Porosity Layer 69
 3.500000e-01
INTERNAL  1.000000e+00  (FREE)  -1  Porosity Layer 70
 3.500000e-01
INTERNAL  1.000000e+00  (FREE)  -1  Porosity Layer 71
 3.500000e-01
INTERNAL  1.000000e+00  (FREE)  -1  Porosity Layer 72
 3.500000e-01
INTERNAL  1.000000e+00  (FREE)  -1  Porosity Layer 73
 3.500000e-01
INTERNAL  1.000000e+00  (FREE)  -1  Porosity Layer 74
 3.500000e-01
INTERNAL  1.000000e+00  (FREE)  -1  Porosity Layer 75
 3.500000e-01
INTERNAL  1.000000e+00  (FREE)  -1  Porosity Layer 76
 3.500000e-01
INTERNAL  1.000000e+00  (FREE)  -1  Porosity Layer 77
 3.500000e-01
INTERNAL  1.000000e+00  (FREE)  -1  Porosity Layer 78
 3.500000e-01
INTERNAL  1.000000e+00  (FREE)  -1  Porosity Layer 79
 3.500000e-01
INTERNAL  1.000000e+00  (FREE)  -1  Porosity Layer 80
 3.500000e-01
INTERNAL  1.000000e+00  (FREE)  -1  Porosity Layer 81
 3.500000e-01
INTERNAL  1.000000e+00  (FREE)  -1  Porosity Layer 82
 3.500000e-01
INTERNAL  1.000000e+00  (FREE)  -1  Porosity Layer 83
 3.500000e-01
INTERNAL  1.000000e+00  (FREE)  -1  Porosity Layer 84
 3.500000e-01
INTERNAL  1.000000e+00  (FREE)  -1  Porosity Layer 85
 3.500000e-01
INTERNAL  1.000000e+00  (FREE)  -1  Porosity Layer 86
 3.500000e-01
INTERNAL  1.000000e+00  (FREE)  -1  Porosity Layer 87
 3.500000e-01
INTERNAL  1.000000e+00  (FREE)  -1  Porosity Layer 88
 3.500000e-01
INTERNAL  1.000000e+00  (FREE)  -1  Porosity Layer 89
 3.500000e-01
INTERNAL  1.000000e+00  (FREE)  -1  Porosity Layer 90
 3.500000e-01
INTERNAL  1.000000e+00  (FREE)  -1  Porosity Layer 91
 3.500000e-01
INTERNAL  1.000000e+00  (FREE)  -1  Porosity Layer 92
 3.500000e-01
INTERNAL  1.000000e+00  (FREE)  -1  Porosity Layer 93
 3.500000e-01
INTERNAL  1.000000e+00  (FREE)  -1  Porosity Layer 94
 3.500000e-01
INTERNAL  1.000000e+00  (FREE)  -1  Porosity Layer 95
 3.500000e-01
INTERNAL  1.000000e+00  (FREE)  -1  Porosity Layer 96
 3.500000e-01
INTERNAL  1.000000e+00  (FREE)  -1  Porosity Layer 97
 3.500000e-01
INTERNAL  1.000000e+00  (FREE)  -1  Porosity Layer 98
 3.500000e-01
INTERNAL  1.000000e+00  (FREE)  -1  Porosity Layer 99
 3.500000e-01
INTERNAL  1.000000e+00  (FREE)  -1  Porosity Layer 100
 3.500000e-01
INTERNAL  1.000000e+00  (FREE)  -1  Porosity Layer 101
 3.500000e-01
INTERNAL  1.000000e+00  (FREE)  -1  Porosity Layer 102
 3.500000e-01
INTERNAL  1.000000e+00  (FREE)  -1  Porosity Layer 103
 3.500000e-01
INTERNAL  1.000000e+00  (FREE)  -1  Porosity Layer 104
 3.500000e-01
INTERNAL  1.000000e+00  (FREE)  -1  Porosity Layer 105
 3.500000e-01
INTERNAL  1.000000e+00  (FREE)  -1  Porosity Layer 106
 3.500000e-01
INTERNAL  1.000000e+00  (FREE)  -1  Porosity Layer 107
 3.500000e-01
INTERNAL  1.000000e+00  (FREE)  -1  Porosity Layer 108
 3.500000e-01
INTERNAL  1.000000e+00  (FREE)  -1  Porosity Layer 109
 3.500000e-01
INTERNAL  1.000000e+00  (FREE)  -1  Porosity Layer 110
 3.500000e-01
INTERNAL  1.000000e+00  (FREE)  -1  Porosity Layer 111
 3.500000e-01
INTERNAL  1.000000e+00  (FREE)  -1  Porosity Layer 112
 3.500000e-01
INTERNAL  1.000000e+00  (FREE)  -1  Porosity Layer 113
 3.500000e-01
INTERNAL  1.000000e+00  (FREE)  -1  Porosity Layer 114
 3.500000e-01
INTERNAL  1.000000e+00  (FREE)  -1  Porosity Layer 115
 3.500000e-01
INTERNAL  1.000000e+00  (FREE)  -1  Porosity Layer 116
 3.500000e-01
INTERNAL  1.000000e+00  (FREE)  -1  Porosity Layer 117
 3.500000e-01
INTERNAL  1.000000e+00  (FREE)  -1  Porosity Layer 118
 3.500000e-01
INTERNAL  1.000000e+00  (FREE)  -1  Porosity Layer 119
 3.500000e-01
INTERNAL  1.000000e+00  (FREE)  -1  Porosity Layer 120
 3.500000e-01
INTERNAL  1.000000e+00  (FREE)  -1  BULKD Layer 1
 1.709500e+03
INTERNAL  1.000000e+00  (FREE)  -1  BULKD Layer 2
 1.709500e+03
INTERNAL  1.000000e+00  (FREE)  -1  BULKD Layer 3
 1.709500e+03
INTERNAL  1.000000e+00  (FREE)  -1  BULKD Layer 4
 1.709500e+03
INTERNAL  1.000000e+00  (FREE)  -1  BULKD Layer 5
 1.709500e+03
INTERNAL  1.000000e+00  (FREE)  -1  BULKD Layer 6
 1.709500e+03
INTERNAL  1.000000e+00  (FREE)  -1  BULKD Layer 7
 1.709500e+03
INTERNAL  1.000000e+00  (FREE)  -1  BULKD Layer 8
 1.709500e+03
INTERNAL  1.000000e+00  (FREE)  -1  BULKD Layer 9
 1.709500e+03
INTERNAL  1.000000e+00  (FREE)  -1  BULKD Layer 10
 1.709500e+03
INTERNAL  1.000000e+00  (FREE)  -1  BULKD Layer 11
 1.709500e+03
INTERNAL  1.000000e+00  (FREE)  -1  BULKD Layer 12
 1.709500e+03
INTERNAL  1.000000e+00  (FREE)  -1  BULKD Layer 13
 1.709500e+03
INTERNAL  1.000000e+00  (FREE)  -1  BULKD Layer 14
 1.709500e+03
INTERNAL  1.000000e+00  (FREE)  -1  BULKD Layer 15
 1.709500e+03
INTERNAL  1.000000e+00  (FREE)  -1  BULKD Layer 16
 1.709500e+03
INTERNAL  1.000000e+00  (FREE)  -1  BULKD Layer 17
 1.709500e+03
INTERNAL  1.000000e+00  (FREE)  -1  BULKD Layer 18
 1.709500e+03
INTERNAL  1.000000e+00  (FREE)  -1  BULKD Layer 19
 1.709500e+03
INTERNAL  1.000000e+00  (FREE)  -1  BULKD Layer 20
 1.709500e+03
INTERNAL  1.000000e+00  (FREE)  -1  BULKD Layer 21
 1.709500e+03
INTERNAL  1.000000e+00  (FREE)  -1  BULKD Layer 22
 1.709500e+03
INTERNAL  1.000000e+00  (FREE)  -1  BULKD Layer 23
 1.709500e+03
INTERNAL  1.000000e+00  (FREE)  -1  BULKD Layer 24
 1.709500e+03
INTERNAL  1.000000e+00  (FREE)  -1  BULKD Layer 25
 1.709500e+03
INTERNAL  1.000000e+00  (FREE)  -1  BULKD Layer 26
 1.709500e+03
INTERNAL  1.000000e+00  (FREE)  -1  BULKD Layer 27
 1.709500e+03
INTERNAL  1.000000e+00  (FREE)  -1  BULKD Layer 28
 1.709500e+03
INTERNAL  1.000000e+00  (FREE)  -1  BULKD Layer 29
 1.709500e+03
INTERNAL  1.000000e+00  (FREE)  -1  BULKD Layer 30
 1.709500e+03
INTERNAL  1.000000e+00  (FREE)  -1  BULKD Layer 31
 1.709500e+03
INTERNAL  1.000000e+00  (FREE)  -1  BULKD Layer 32
 1.709500e+03
INTERNAL  1.000000e+00  (FREE)  -1  BULKD Layer 33
 1.709500e+03
INTERNAL  1.000000e+00  (FREE)  -1  BULKD Layer 34
 1.709500e+03
INTERNAL  1.000000e+00  (FREE)  -1  BULKD Layer 35
 1.709500e+03
INTERNAL  1.000000e+00  (FREE)  -1  BULKD Layer 36
 1.709500e+03
INTERNAL  1.000000e+00  (FREE)  -1  BULKD Layer 37
 1.709500e+03
INTERNAL  1.000000e+00  (FREE)  -1  BULKD Layer 38
 1.709500e+03
INTERNAL  1.000000e+00  (FREE)  -1  BULKD Layer 39
 1.709500e+03
INTERNAL  1.000000e+00  (FREE)  -1  BULKD Layer 40
 1.709500e+03
INTERNAL  1.000000e+00  (FREE)  -1  BULKD Layer 41
 1.709500e+03
INTERNAL  1.000000e+00  (FREE)  -1  BULKD Layer 42
 1.709500e+03
INTERNAL  1.000000e+00  (FREE)  -1  BULKD Layer 43
 1.709500e+03
INTERNAL  1.000000e+00  (FREE)  -1  BULKD Layer 44
 1.709500e+03
INTERNAL  1.000000e+00  (FREE)  -1  BULKD Layer 45
 1.709500e+03
INTERNAL  1.000000e+00  (FREE)  -1  BULKD Layer 46
 1.709500e+03
INTERNAL  1.000000e+00  (FREE)  -1  BULKD Layer 47
 1.709500e+03
INTERNAL  1.000000e+00  (FREE)  -1  BULKD Layer 48
 1.709500e+03
INTERNAL  1.000000e+00  (FREE)  -1  BULKD Layer 49
 1.709500e+03
INTERNAL  1.000000e+00  (FREE)  -1  BULKD Layer 50
 1.709500e+03
INTERNAL  1.000000e+00  (FREE)  -1  BULKD Layer 51
 1.709500e+03
INTERNAL  1.000000e+00  (FREE)  -1  BULKD Layer 52
 1.709500e+03
INTERNAL  1.000000e+00  (FREE)  -1  BULKD Layer 53
 1.709500e+03
INTERNAL  1.000000e+00  (FREE)  -1  BULKD Layer 54
 1.709500e+03
INTERNAL  1.000000e+00  (FREE)  -1  BULKD Layer 55
 1.709500e+03
INTERNAL  1.000000e+00  (FREE)  -1  BULKD Layer 56
 1.709500e+03
INTERNAL  1.000000e+00  (FREE)  -1  BULKD Layer 57
 1.709500e+03
INTERNAL  1.000000e+00  (FREE)  -1  BULKD Layer 58
 1.709500e+03
INTERNAL  1.000000e+00  (FREE)  -1  BULKD Layer 59
 1.709500e+03
INTERNAL  1.000000e+00  (FREE)  -1  BULKD Layer 60
 1.709500e+03
INTERNAL  1.000000e+00  (FREE)  -1  BULKD Layer 61
 1.709500e+03
INTERNAL  1.000000e+00  (FREE)  -1  BULKD Layer 62
 1.709500e+03
INTERNAL  1.000000e+00  (FREE)  -1  BULKD Layer 63
 1.709500e+03
INTERNAL  1.000000e+00  (FREE)  -1  BULKD Layer 64
 1.709500e+03
INTERNAL  1.000000e+00  (FREE)  -1  BULKD Layer 65
 1.709500e+03
INTERNAL  1.000000e+00  (FREE)  -1  BULKD Layer 66
 1.709500e+03
INTERNAL  1.000000e+00  (FREE)  -1  BULKD Layer 67
 1.709500e+03
INTERNAL  1.000000e+00  (FREE)  -1  BULKD Layer 68
 1.709500e+03
INTERNAL  1.000000e+00  (FREE)  -1  BULKD Layer 69
 1.709500e+03
INTERNAL  1.000000e+00  (FREE)  -1  BULKD Layer 70
 1.709500e+03
INTERNAL  1.000000e+00  (FREE)  -1  BULKD Layer 71
 1.709500e+03
INTERNAL  1.000000e+00  (FREE)  -1  BULKD Layer 72
 1.709500e+03
INTERNAL  1.000000e+00  (FREE)  -1  BULKD Layer 73
 1.709500e+03
INTERNAL  1.000000e+00  (FREE)  -1  BULKD Layer 74
 1.709500e+03
INTERNAL  1.000000e+00  (FREE)  -1  BULKD Layer 75
 1.709500e+03
INTERNAL  1.000000e+00  (FREE)  -1  BULKD Layer 76
 1.709500e+03
INTERNAL  1.000000e+00  (FREE)  -1  BULKD Layer 77
 1.709500e+03
INTERNAL  1.000000e+00  (FREE)  -1  BULKD Layer 78
 1.709500e+03
INTERNAL  1.000000e+00  (FREE)  -1  BULKD Layer 79
 1.709500e+03
INTERNAL  1.000000e+00  (FREE)  -1  BULKD Layer 80
 1.709500e+03
INTERNAL  1.000000e+00  (FREE)  -1  BULKD Layer 81
 1.709500e+03
INTERNAL  1.000000e+00  (FREE)  -1  BULKD Layer 82
 1.709500e+03
INTERNAL  1.000000e+00  (FREE)  -1  BULKD Layer 83
 1.709500e+03
INTERNAL  1.000000e+00  (FREE)  -1  BULKD Layer 84
 1.709500e+03
INTERNAL  1.000000e+00  (FREE)  -1  BULKD Layer 85
 1.709500e+03
INTERNAL  1.000000e+00  (FREE)  -1  BULKD Layer 86
 1.709500e+03
INTERNAL  1.000000e+00  (FREE)  -1  BULKD Layer 87
 1.709500e+03
INTERNAL  1.000000e+00  (FREE)  -1  BULKD Layer 88
 1.709500e+03
INTERNAL  1.000000e+00  (FREE)  -1  BULKD Layer 89
 1.709500e+03
INTERNAL  1.000000e+00  (FREE)  -1  BULKD Layer 90
 1.709500e+03
INTERNAL  1.000000e+00  (FREE)  -1  BULKD Layer 91
 1.709500e+03
INTERNAL  1.000000e+00  (FREE)  -1  BULKD Layer 92
 1.709500e+03
INTERNAL  1.000000e+00  (FREE)  -1  BULKD Layer 93
 1.709500e+03
INTERNAL  1.000000e+00  (FREE)  -1  BULKD Layer 94
 1.709500e+03
INTERNAL  1.000000e+00  (FREE)  -1  BULKD Layer 95
 1.709500e+03
INTERNAL  1.000000e+00  (FREE)  -1  BULKD Layer 96
 1.709500e+03
INTERNAL  1.000000e+00  (FREE)  -1  BULKD Layer 97
 1.709500e+03
INTERNAL  1.000000e+00  (FREE)  -1  BULKD Layer 98
 1.709500e+03
INTERNAL  1.000000e+00  (FREE)  -1  BULKD Layer 99
 1.709500e+03
INTERNAL  1.000000e+00  (FREE)  -1  BULKD Layer 100
 1.709500e+03
INTERNAL  1.000000e+00  (FREE)  -1  BULKD Layer 101
 1.709500e+03
INTERNAL  1.000000e+00  (FREE)  -1  BULKD Layer 102
 1.709500e+03
INTERNAL  1.000000e+00  (FREE)  -1  BULKD Layer 103
 1.709500e+03
INTERNAL  1.000000e+00  (FREE)  -1  BULKD Layer 104
 1.709500e+03
INTERNAL  1.000000e+00  (FREE)  -1  BULKD Layer 105
 1.709500e+03
INTERNAL  1.000000e+00  (FREE)  -1  BULKD Layer 106
 1.709500e+03
INTERNAL  1.000000e+00  (FREE)  -1  BULKD Layer 107
 1.709500e+03
INTERNAL  1.000000e+00  (FREE)  -1  BULKD Layer 108
 1.709500e+03
INTERNAL  1.000000e+00  (FREE)  -1  BULKD Layer 109
 1.709500e+03
INTERNAL  1.000000e+00  (FREE)  -1  BULKD Layer 110
 1.709500e+03
INTERNAL  1.000000e+00  (FREE)  -1  BULKD Layer 111
 1.709500e+03
INTERNAL  1.000000e+00  (FREE)  -1  BULKD Layer 112
 1.709500e+03
INTERNAL  1.000000e+00  (FREE)  -1  BULKD Layer 113
 1.709500e+03
INTERNAL  1.000000e+00  (FREE)  -1  BULKD Layer 114
 1.709500e+03
INTERNAL  1.000000e+00  (FREE)  -1  BULKD Layer 115
 1.709500e+03
INTERNAL  1.000000e+00  (FREE)  -1  BULKD Layer 116
 1.709500e+03
INTERNAL  1.000000e+00  (FREE)  -1  BULKD Layer 117
 1.709500e+03
INTERNAL  1.000000e+00  (FREE)  -1  BULKD Layer 118
 1.709500e+03
INTERNAL  1.000000e+00  (FREE)  -1  BULKD Layer 119
 1.709500e+03
INTERNAL  1.000000e+00  (FREE)  -1  BULKD Layer 120
 1.709500e+03
INTERNAL  1.0  (FREE)  -1  ANGLEX by NJAG
 0.000000e+00 0.000000e+00
 0.000000e+00 0.000000e+00 0.000000e+00
 0.000000e+00 0.000000e+00 0.000000e+00
 0.000000e+00 0.000000e+00 0.000000e+00
 0.000000e+00 0.000000e+00 0.000000e+00
 0.000000e+00 0.000000e+00 0.000000e+00
 0.000000e+00 0.000000e+00 0.000000e+00
 0.000000e+00 0.000000e+00 0.000000e+00
 0.000000e+00 0.000000e+00 0.000000e+00
 0.000000e+00 0.000000e+00 0.000000e+00
 0.000000e+00 0.000000e+00 0.000000e+00
 0.000000e+00 0.000000e+00 0.000000e+00
 0.000000e+00 0.000000e+00 0.000000e+00
 0.000000e+00 0.000000e+00 0.000000e+00
 0.000000e+00 0.000000e+00 0.000000e+00
 0.000000e+00 0.000000e+00 0.000000e+00
 0.000000e+00 0.000000e+00 0.000000e+00
 0.000000e+00 0.000000e+00 0.000000e+00
 0.000000e+00 0.000000e+00 0.000000e+00
 0.000000e+00 0.000000e+00 0.000000e+00
 0.000000e+00 0.000000e+00 0.000000e+00
 0.000000e+00 0.000000e+00 0.000000e+00
 0.000000e+00 0.000000e+00 0.000000e+00
 0.000000e+00 0.000000e+00 0.000000e+00
 0.000000e+00 0.000000e+00 0.000000e+00
 0.000000e+00 0.000000e+00 0.000000e+00
 0.000000e+00 0.000000e+00 0.000000e+00
 0.000000e+00 0.000000e+00 0.000000e+00
 0.000000e+00 0.000000e+00 0.000000e+00
 0.000000e+00 0.000000e+00 0.000000e+00
 0.000000e+00 0.000000e+00 0.000000e+00
 0.000000e+00 0.000000e+00 0.000000e+00
 0.000000e+00 0.000000e+00 0.000000e+00
 0.000000e+00 0.000000e+00 0.000000e+00
 0.000000e+00 0.000000e+00 0.000000e+00
 0.000000e+00 0.000000e+00 0.000000e+00
 0.000000e+00 0.000000e+00 0.000000e+00
 0.000000e+00 0.000000e+00 0.000000e+00
 0.000000e+00 0.000000e+00 0.000000e+00
 0.000000e+00 0.000000e+00 0.000000e+00
 0.000000e+00 0.000000e+00 0.000000e+00
 0.000000e+00 0.000000e+00 0.000000e+00
 0.000000e+00 0.000000e+00 0.000000e+00
 0.000000e+00 0.000000e+00 0.000000e+00
 0.000000e+00 0.000000e+00 0.000000e+00
 0.000000e+00 0.000000e+00 0.000000e+00
 0.000000e+00 0.000000e+00 0.000000e+00
 0.000000e+00 0.000000e+00 0.000000e+00
 0.000000e+00 0.000000e+00 0.000000e+00
 0.000000e+00 0.000000e+00 0.000000e+00
 0.000000e+00 0.000000e+00 0.000000e+00
 0.000000e+00 0.000000e+00 0.000000e+00
 0.000000e+00 0.000000e+00 0.000000e+00
 0.000000e+00 0.000000e+00 0.000000e+00
 0.000000e+00 0.000000e+00 0.000000e+00
 0.000000e+00 0.000000e+00 0.000000e+00
 0.000000e+00 0.000000e+00 0.000000e+00
 0.000000e+00 0.000000e+00 0.000000e+00
 0.000000e+00 0.000000e+00 0.000000e+00
 0.000000e+00 0.000000e+00 0.000000e+00
 0.000000e+00 0.000000e+00 0.000000e+00
 0.000000e+00 0.000000e+00 0.000000e+00
 0.000000e+00 0.000000e+00 0.000000e+00
 0.000000e+00 0.000000e+00 0.000000e+00
 0.000000e+00 0.000000e+00 0.000000e+00
 0.000000e+00 0.000000e+00 0.000000e+00
 0.000000e+00 0.000000e+00 0.000000e+00
 0.000000e+00 0.000000e+00 0.000000e+00
 0.000000e+00 0.000000e+00 0.000000e+00
 0.000000e+00 0.000000e+00 0.000000e+00
 0.000000e+00 0.000000e+00 0.000000e+00
 0.000000e+00 0.000000e+00 0.000000e+00
 0.000000e+00 0.000000e+00 0.000000e+00
 0.000000e+00 0.000000e+00 0.000000e+00
 0.000000e+00 0.000000e+00 0.000000e+00
 0.000000e+00 0.000000e+00 0.000000e+00
 0.000000e+00 0.000000e+00 0.000000e+00
 0.000000e+00 0.000000e+00 0.000000e+00
 0.000000e+00 0.000000e+00 0.000000e+00
 0.000000e+00 0.000000e+00 0.000000e+00
 0.000000e+00 0.000000e+00 0.000000e+00
 0.000000e+00 0.000000e+00 0.000000e+00
 0.000000e+00 0.000000e+00 0.000000e+00
 0.000000e+00 0.000000e+00 0.000000e+00
 0.000000e+00 0.000000e+00 0.000000e+00
 0.000000e+00 0.000000e+00 0.000000e+00
 0.000000e+00 0.000000e+00 0.000000e+00
 0.000000e+00 0.000000e+00 0.000000e+00
 0.000000e+00 0.000000e+00 0.000000e+00
 0.000000e+00 0.000000e+00 0.000000e+00
 0.000000e+00 0.000000e+00 0.000000e+00
 0.000000e+00 0.000000e+00 0.000000e+00
 0.000000e+00 0.000000e+00 0.000000e+00
 0.000000e+00 0.000000e+00 0.000000e+00
 0.000000e+00 0.000000e+00 0.000000e+00
 0.000000e+00 0.000000e+00 0.000000e+00
 0.000000e+00 0.000000e+00 0.000000e+00
 0.000000e+00 0.000000e+00 0.000000e+00
 0.000000e+00 0.000000e+00 0.000000e+00
 0.000000e+00 0.000000e+00 0.000000e+00
 0.000000e+00 0.000000e+00 0.000000e+00
 0.000000e+00 0.000000e+00 0.000000e+00
 0.000000e+00 0.000000e+00 0.000000e+00
 0.000000e+00 0.000000e+00 0.000000e+00
 0.000000e+00 0.000000e+00 0.000000e+00
 0.000000e+00 0.000000e+00 0.000000e+00
 0.000000e+00 0.000000e+00 0.000000e+00
 0.000000e+00 0.000000e+00 0.000000e+00
 0.000000e+00 0.000000e+00 0.000000e+00
 0.000000e+00 0.000000e+00 0.000000e+00
 0.000000e+00 0.000000e+00 0.000000e+00
 0.000000e+00 0.000000e+00 0.000000e+00
 0.000000e+00 0.000000e+00 0.000000e+00
 0.000000e+00 0.000000e+00 0.000000e+00
 0.000000e+00 0.000000e+00 0.000000e+00
 0.000000e+00 0.000000e+00 0.000000e+00
 0.000000e+00 0.000000e+00 0.000000e+00
 0.000000e+00 0.000000e+00 0.000000e+00
 0.000000e+00 0.000000e+00 0.000000e+00
 0.000000e+00 0.000000e+00
INTERNAL  1.000000e+00  (FREE)  -1  DL Layer 1
 0.000000e+00
INTERNAL  1.000000e+00  (FREE)  -1  DL Layer 2
 0.000000e+00
INTERNAL  1.000000e+00  (FREE)  -1  DL Layer 3
 0.000000e+00
INTERNAL  1.000000e+00  (FREE)  -1  DL Layer 4
 0.000000e+00
INTERNAL  1.000000e+00  (FREE)  -1  DL Layer 5
 0.000000e+00
INTERNAL  1.000000e+00  (FREE)  -1  DL Layer 6
 0.000000e+00
INTERNAL  1.000000e+00  (FREE)  -1  DL Layer 7
 0.000000e+00
INTERNAL  1.000000e+00  (FREE)  -1  DL Layer 8
 0.000000e+00
INTERNAL  1.000000e+00  (FREE)  -1  DL Layer 9
 0.000000e+00
INTERNAL  1.000000e+00  (FREE)  -1  DL Layer 10
 0.000000e+00
INTERNAL  1.000000e+00  (FREE)  -1  DL Layer 11
 0.000000e+00
INTERNAL  1.000000e+00  (FREE)  -1  DL Layer 12
 0.000000e+00
INTERNAL  1.000000e+00  (FREE)  -1  DL Layer 13
 0.000000e+00
INTERNAL  1.000000e+00  (FREE)  -1  DL Layer 14
 0.000000e+00
INTERNAL  1.000000e+00  (FREE)  -1  DL Layer 15
 0.000000e+00
INTERNAL  1.000000e+00  (FREE)  -1  DL Layer 16
 0.000000e+00
INTERNAL  1.000000e+00  (FREE)  -1  DL Layer 17
 0.000000e+00
INTERNAL  1.000000e+00  (FREE)  -1  DL Layer 18
 0.000000e+00
INTERNAL  1.000000e+00  (FREE)  -1  DL Layer 19
 0.000000e+00
INTERNAL  1.000000e+00  (FREE)  -1  DL Layer 20
 0.000000e+00
INTERNAL  1.000000e+00  (FREE)  -1  DL Layer 21
 0.000000e+00
INTERNAL  1.000000e+00  (FREE)  -1  DL Layer 22
 0.000000e+00
INTERNAL  1.000000e+00  (FREE)  -1  DL Layer 23
 0.000000e+00
INTERNAL  1.000000e+00  (FREE)  -1  DL Layer 24
 0.000000e+00
INTERNAL  1.000000e+00  (FREE)  -1  DL Layer 25
 0.000000e+00
INTERNAL  1.000000e+00  (FREE)  -1  DL Layer 26
 0.000000e+00
INTERNAL  1.000000e+00  (FREE)  -1  DL Layer 27
 0.000000e+00
INTERNAL  1.000000e+00  (FREE)  -1  DL Layer 28
 0.000000e+00
INTERNAL  1.000000e+00  (FREE)  -1  DL Layer 29
 0.000000e+00
INTERNAL  1.000000e+00  (FREE)  -1  DL Layer 30
 0.000000e+00
INTERNAL  1.000000e+00  (FREE)  -1  DL Layer 31
 0.000000e+00
INTERNAL  1.000000e+00  (FREE)  -1  DL Layer 32
 0.000000e+00
INTERNAL  1.000000e+00  (FREE)  -1  DL Layer 33
 0.000000e+00
INTERNAL  1.000000e+00  (FREE)  -1  DL Layer 34
 0.000000e+00
INTERNAL  1.000000e+00  (FREE)  -1  DL Layer 35
 0.000000e+00
INTERNAL  1.000000e+00  (FREE)  -1  DL Layer 36
 0.000000e+00
INTERNAL  1.000000e+00  (FREE)  -1  DL Layer 37
 0.000000e+00
INTERNAL  1.000000e+00  (FREE)  -1  DL Layer 38
 0.000000e+00
INTERNAL  1.000000e+00  (FREE)  -1  DL Layer 39
 0.000000e+00
INTERNAL  1.000000e+00  (FREE)  -1  DL Layer 40
 0.000000e+00
INTERNAL  1.000000e+00  (FREE)  -1  DL Layer 41
 0.000000e+00
INTERNAL  1.000000e+00  (FREE)  -1  DL Layer 42
 0.000000e+00
INTERNAL  1.000000e+00  (FREE)  -1  DL Layer 43
 0.000000e+00
INTERNAL  1.000000e+00  (FREE)  -1  DL Layer 44
 0.000000e+00
INTERNAL  1.000000e+00  (FREE)  -1  DL Layer 45
 0.000000e+00
INTERNAL  1.000000e+00  (FREE)  -1  DL Layer 46
 0.000000e+00
INTERNAL  1.000000e+00  (FREE)  -1  DL Layer 47
 0.000000e+00
INTERNAL  1.000000e+00  (FREE)  -1  DL Layer 48
 0.000000e+00
INTERNAL  1.000000e+00  (FREE)  -1  DL Layer 49
 0.000000e+00
INTERNAL  1.000000e+00  (FREE)  -1  DL Layer 50
 0.000000e+00
INTERNAL  1.000000e+00  (FREE)  -1  DL Layer 51
 0.000000e+00
INTERNAL  1.000000e+00  (FREE)  -1  DL Layer 52
 0.000000e+00
INTERNAL  1.000000e+00  (FREE)  -1  DL Layer 53
 0.000000e+00