# MODFLOW-USGs Basic Package
# MODFLOW Data Set Created by Groundwater Vistas
#    
 UNSTRUCTURED FREE
CONSTANT  1              IBOUND Layer 1
CONSTANT  1              IBOUND Layer 2
CONSTANT  1              IBOUND Layer 3
CONSTANT  1              IBOUND Layer 4
CONSTANT  1              IBOUND Layer 5
CONSTANT  1              IBOUND Layer 6
CONSTANT  1              IBOUND Layer 7
CONSTANT  1              IBOUND Layer 8
CONSTANT  1              IBOUND Layer 9
CONSTANT  1              IBOUND Layer 10
CONSTANT  1              IBOUND Layer 11
CONSTANT  1              IBOUND Layer 12
CONSTANT  1              IBOUND Layer 13
CONSTANT  1              IBOUND Layer 14
CONSTANT  1              IBOUND Layer 15
CONSTANT  1              IBOUND Layer 16
CONSTANT  1              IBOUND Layer 17
CONSTANT  1              IBOUND Layer 18
CONSTANT  1              IBOUND Layer 19
CONSTANT  1              IBOUND Layer 20
CONSTANT  1              IBOUND Layer 21
CONSTANT  1              IBOUND Layer 22
CONSTANT  1              IBOUND Layer 23
CONSTANT  1              IBOUND Layer 24
CONSTANT  1              IBOUND Layer 25
CONSTANT  1              IBOUND Layer 26
CONSTANT  1              IBOUND Layer 27
CONSTANT  1              IBOUND Layer 28
CONSTANT  1              IBOUND Layer 29
CONSTANT  1              IBOUND Layer 30
CONSTANT  1              IBOUND Layer 31
CONSTANT  1              IBOUND Layer 32
CONSTANT  1              IBOUND Layer 33
CONSTANT  1              IBOUND Layer 34
CONSTANT  1              IBOUND Layer 35
CONSTANT  1              IBOUND Layer 36
CONSTANT  1              IBOUND Layer 37
CONSTANT  1              IBOUND Layer 38
CONSTANT  1              IBOUND Layer 39
CONSTANT  1              IBOUND Layer 40
CONSTANT  1              IBOUND Layer 41
CONSTANT  1              IBOUND Layer 42
CONSTANT  1              IBOUND Layer 43
CONSTANT  1              IBOUND Layer 44
CONSTANT  1              IBOUND Layer 45
CONSTANT  1              IBOUND Layer 46
CONSTANT  1              IBOUND Layer 47
CONSTANT  1              IBOUND Layer 48
CONSTANT  1              IBOUND Layer 49
CONSTANT  1              IBOUND Layer 50
CONSTANT  1              IBOUND Layer 51
CONSTANT  1              IBOUND Layer 52
CONSTANT  1              IBOUND Layer 53
CONSTANT  1              IBOUND Layer 54
CONSTANT  1              IBOUND Layer 55
CONSTANT  1              IBOUND Layer 56
CONSTANT  1              IBOUND Layer 57
CONSTANT  1              IBOUND Layer 58
CONSTANT  1              IBOUND Layer 59
CONSTANT  1              IBOUND Layer 60
CONSTANT  1              IBOUND Layer 61
CONSTANT  1              IBOUND Layer 62
CONSTANT  1              IBOUND Layer 63
CONSTANT  1              IBOUND Layer 64
CONSTANT  1              IBOUND Layer 65
CONSTANT  1              IBOUND Layer 66
CONSTANT  1              IBOUND Layer 67
CONSTANT  1              IBOUND Layer 68
CONSTANT  1              IBOUND Layer 69
CONSTANT  1              IBOUND Layer 70
CONSTANT  1              IBOUND Layer 71
CONSTANT  1              IBOUND Layer 72
CONSTANT  1              IBOUND Layer 73
CONSTANT  1              IBOUND Layer 74
CONSTANT  1              IBOUND Layer 75
CONSTANT  1              IBOUND Layer 76
CONSTANT  1              IBOUND Layer 77
CONSTANT  1              IBOUND Layer 78
CONSTANT  1              IBOUND Layer 79
CONSTANT  1              IBOUND Layer 80
CONSTANT  1              IBOUND Layer 81
CONSTANT  1              IBOUND Layer 82
CONSTANT  1              IBOUND Layer 83
CONSTANT  1              IBOUND Layer 84
CONSTANT  1              IBOUND Layer 85
CONSTANT  1              IBOUND Layer 86
CONSTANT  1              IBOUND Layer 87
CONSTANT  1              IBOUND Layer 88
CONSTANT  1              IBOUND Layer 89
CONSTANT  1              IBOUND Layer 90
CONSTANT  1              IBOUND Layer 91
CONSTANT  1              IBOUND Layer 92
CONSTANT  1              IBOUND Layer 93
CONSTANT  1              IBOUND Layer 94
CONSTANT  1              IBOUND Layer 95
CONSTANT  1              IBOUND Layer 96
CONSTANT  1              IBOUND Layer 97
CONSTANT  1              IBOUND Layer 98
CONSTANT  1              IBOUND Layer 99
CONSTANT  1              IBOUND Layer 100
CONSTANT  1              IBOUND Layer 101
CONSTANT  1              IBOUND Layer 102
CONSTANT  1              IBOUND Layer 103
CONSTANT  1              IBOUND Layer 104
CONSTANT  1              IBOUND Layer 105
CONSTANT  1              IBOUND Layer 106
CONSTANT  1              IBOUND Layer 107
CONSTANT  1              IBOUND Layer 108
CONSTANT  1              IBOUND Layer 109
CONSTANT  1              IBOUND Layer 110
CONSTANT  1              IBOUND Layer 111
CONSTANT  1              IBOUND Layer 112
CONSTANT  1              IBOUND Layer 113
CONSTANT  1              IBOUND Layer 114
CONSTANT  1              IBOUND Layer 115
CONSTANT  1              IBOUND Layer 116
CONSTANT  1              IBOUND Layer 117
CONSTANT  1              IBOUND Layer 118
CONSTANT  1              IBOUND Layer 119
CONSTANT  1              IBOUND Layer 120
9.990000e+02
CONSTANT 60.000000                    Starting Heads Layer 1
CONSTANT 60.000000                    Starting Heads Layer 2
CONSTANT 60.000000                    Starting Heads Layer 3
CONSTANT 60.000000                    Starting Heads Layer 4
CONSTANT 60.000000                    Starting Heads Layer 5
CONSTANT 60.000000                    Starting Heads Layer 6
CONSTANT 60.000000                    Starting Heads Layer 7
CONSTANT 60.000000                    Starting Heads Layer 8
CONSTANT 60.000000                    Starting Heads Layer 9
CONSTANT 60.000000                    Starting Heads Layer 10
CONSTANT 60.000000                    Starting Heads Layer 11
CONSTANT 60.000000                    Starting Heads Layer 12
CONSTANT 60.000000                    Starting Heads Layer 13
CONSTANT 60.000000                    Starting Heads Layer 14
CONSTANT 60.000000                    Starting Heads Layer 15
CONSTANT 60.000000                    Starting Heads Layer 16
CONSTANT 60.000000                    Starting Heads Layer 17
CONSTANT 60.000000                    Starting Heads Layer 18
CONSTANT 60.000000                    Starting Heads Layer 19
CONSTANT 60.000000                    Starting Heads Layer 20
CONSTANT 60.000000                    Starting Heads Layer 21
CONSTANT 60.000000                    Starting Heads Layer 22
CONSTANT 60.000000                    Starting Heads Layer 23
CONSTANT 60.000000                    Starting Heads Layer 24
CONSTANT 60.000000                    Starting Heads Layer 25
CONSTANT 60.000000                    Starting Heads Layer 26
CONSTANT 60.000000                    Starting Heads Layer 27
CONSTANT 60.000000                    Starting Heads Layer 28
CONSTANT 60.000000                    Starting Heads Layer 29
CONSTANT 60.000000                    Starting Heads Layer 30
CONSTANT 60.000000                    Starting Heads Layer 31
CONSTANT 60.000000                    Starting Heads Layer 32
CONSTANT 60.000000                    Starting Heads Layer 33
CONSTANT 60.000000                    Starting Heads Layer 34
CONSTANT 60.000000                    Starting Heads Layer 35
CONSTANT 60.000000                    Starting Heads Layer 36
CONSTANT 60.000000                    Starting Heads Layer 37
CONSTANT 60.000000                    Starting Heads Layer 38
CONSTANT 60.000000                    Starting Heads Layer 39
CONSTANT 60.000000                    Starting Heads Layer 40
CONSTANT 60.000000                    Starting Heads Layer 41
CONSTANT 60.000000                    Starting Heads Layer 42
CONSTANT 60.000000                    Starting Heads Layer 43
CONSTANT 60.000000                    Starting Heads Layer 44
CONSTANT 60.000000                    Starting Heads Layer 45
CONSTANT 60.000000                    Starting Heads Layer 46
CONSTANT 60.000000                    Starting Heads Layer 47
CONSTANT 60.000000                    Starting Heads Layer 48
CONSTANT 60.000000                    Starting Heads Layer 49
CONSTANT 60.000000                    Starting Heads Layer 50
CONSTANT 60.000000                    Starting Heads Layer 51
CONSTANT 60.000000                    Starting Heads Layer 52
CONSTANT 60.000000                    Starting Heads Layer 53
CONSTANT 60.000000                    Starting Heads Layer 54
CONSTANT 60.000000                    Starting Heads Layer 55
CONSTANT 60.000000                    Starting Heads Layer 56
CONSTANT 60.000000                    Starting Heads Layer 57
CONSTANT 60.000000                    Starting Heads Layer 58
CONSTANT 60.000000                    Starting Heads Layer 59
CONSTANT 60.000000                    Starting Heads Layer 60
CONSTANT 60.000000                    Starting Heads Layer 61
CONSTANT 60.000000                    Starting Heads Layer 62
CONSTANT 60.000000                    Starting Heads Layer 63
CONSTANT 60.000000                    Starting Heads Layer 64
CONSTANT 60.000000                    Starting Heads Layer 65
CONSTANT 60.000000                    Starting Heads Layer 66
CONSTANT 60.000000                    Starting Heads Layer 67
CONSTANT 60.000000                    Starting Heads Layer 68
CONSTANT 60.000000                    Starting Heads Layer 69
CONSTANT 60.000000                    Starting Heads Layer 70
CONSTANT 60.000000                    Starting Heads Layer 71
CONSTANT 60.000000                    Starting Heads Layer 72
CONSTANT 60.000000                    Starting Heads Layer 73
CONSTANT 60.000000                    Starting Heads Layer 74
CONSTANT 60.000000                    Starting Heads Layer 75
CONSTANT 60.000000                    Starting Heads Layer 76
CONSTANT 60.000000                    Starting Heads Layer 77
CONSTANT 60.000000                    Starting Heads Layer 78
CONSTANT 60.000000                    Starting Heads Layer 79
CONSTANT 60.000000                    Starting Heads Layer 80
CONSTANT 60.000000                    Starting Heads Layer 81
CONSTANT 60.000000                    Starting Heads Layer 82
CONSTANT 60.000000                    Starting Heads Layer 83
CONSTANT 60.000000                    Starting Heads Layer 84
CONSTANT 60.000000                    Starting Heads Layer 85
CONSTANT 60.000000                    Starting Heads Layer 86
CONSTANT 60.000000                    Starting Heads Layer 87
CONSTANT 60.000000                    Starting Heads Layer 88
CONSTANT 60.000000                    Starting Heads Layer 89
CONSTANT 60.000000                    Starting Heads Layer 90
CONSTANT 60.000000                    Starting Heads Layer 91
CONSTANT 60.000000                    Starting Heads Layer 92
CONSTANT 60.000000                    Starting Heads Layer 93
CONSTANT 60.000000                    Starting Heads Layer 94
CONSTANT 60.000000                    Starting Heads Layer 95
CONSTANT 60.000000                    Starting Heads Layer 96
CONSTANT 60.000000                    Starting Heads Layer 97
CONSTANT 60.000000                    Starting Heads Layer 98
CONSTANT 60.000000                    Starting Heads Layer 99
CONSTANT 60.000000                    Starting Heads Layer 100
CONSTANT 60.000000                    Starting Heads Layer 101
CONSTANT 60.000000                    Starting Heads Layer 102
CONSTANT 60.000000                    Starting Heads Layer 103
CONSTANT 60.000000                    Starting Heads Layer 104
CONSTANT 60.000000                    Starting Heads Layer 105
CONSTANT 60.000000                    Starting Heads Layer 106
CONSTANT 60.000000                    Starting Heads Layer 107
CONSTANT 60.000000                    Starting Heads Layer 108
CONSTANT 60.000000                    Starting Heads Layer 109
CONSTANT 60.000000                    Starting Heads Layer 110
CONSTANT 60.000000                    Starting Heads Layer 111
CONSTANT 60.000000                    Starting Heads Layer 112
CONSTANT 60.000000                    Starting Heads Layer 113
CONSTANT 60.000000                    Starting Heads Layer 114
CONSTANT 60.000000                    Starting Heads Layer 115
CONSTANT 60.000000                    Starting Heads Layer 116
CONSTANT 60.000000                    Starting Heads Layer 117
CONSTANT 60.000000                    Starting Heads Layer 118
CONSTANT 60.000000                    Starting Heads Layer 119
CONSTANT 60.000000                    Starting Heads Layer 120
