# File generated by Flopy version 3.5.0.dev0 on 03/07/2024 at 07:25:22.
BEGIN options
  auxiliary  CONCENTRATION, MASS
  PRINT_INPUT
  PRINT_FLOWS
END options

BEGIN dimensions
  MAXBOUND  11
END dimensions

BEGIN period  1
  1 1 1 9.75000000E-01 8.64000000E+02 1.00000000E+00 2.300000000E+01
  2 1 2 9.25000000E-01 8.64000000E+02 0.00000000E+00 0.00000000E+00
  2 1 3 9.25000000E-01 8.64000000E+02 1.00000000E+00 2.300000000E+01
  3 1 4 8.75000000E-01 8.64000000E+02 1.00000000E+00 2.300000000E+01
  3 1 5 8.75000000E-01 8.64000000E+02 0.00000000E+00 0.00000000E+00
END period  1

BEGIN period  2
  1 1 1 9.75000000E-01 8.64000000E+02 0.00000000E+00 0.00000000E+00
  1 1 2 9.25000000E-01 8.64000000E+02 1.00000000E+00 2.300000000E+01
  2 1 3 9.25000000E-01 8.64000000E+02 1.00000000E+00 2.300000000E+01
  3 1 4 8.75000000E-01 8.64000000E+02 0.00000000E+00 0.00000000E+00
  3 1 5 8.75000000E-01 8.64000000E+02 0.00000000E+00 0.00000000E+00
END period  2

BEGIN period  3
  1 1 1 9.75000000E-01 8.64000000E+02 0.00000000E+00 0.00000000E+00
  1 1 2 9.25000000E-01 8.64000000E+02 0.00000000E+00 0.00000000E+00
  2 1 3 9.25000000E-01 8.64000000E+02 1.00000000E+00 2.300000000E+01
  3 1 4 8.75000000E-01 8.64000000E+02 1.00000000E+00 2.300000000E+01
  3 1 5 8.75000000E-01 8.64000000E+02 0.00000000E+00 0.00000000E+00
END period  3

BEGIN period  4
  1 1 1 9.75000000E-01 8.64000000E+02 0.00000000E+00 0.00000000E+00
  1 1 2 9.25000000E-01 8.64000000E+02 0.00000000E+00 0.00000000E+00
  2 1 3 9.25000000E-01 8.64000000E+02 0.00000000E+00 0.00000000E+00
  3 1 4 8.75000000E-01 8.64000000E+02 1.00000000E+00 2.300000000E+01
  3 1 5 8.75000000E-01 8.64000000E+02 0.00000000E+00 0.00000000E+00
END period  4

BEGIN period  5
  1 1 1 9.75000000E-01 8.64000000E+02 0.00000000E+00 0.00000000E+00
  1 1 2 9.25000000E-01 8.64000000E+02 0.00000000E+00 0.00000000E+00
  2 1 3 9.25000000E-01 8.64000000E+02 0.00000000E+00 0.00000000E+00
  3 1 4 8.75000000E-01 8.64000000E+02 0.00000000E+00 0.00000000E+00
  3 1 5 8.75000000E-01 8.64000000E+02 0.00000000E+00 0.00000000E+00
END period  5

BEGIN period  6
  1 1 1 9.75000000E-01 8.64000000E+02 0.00000000E+00 0.00000000E+00
  1 1 2 9.25000000E-01 8.64000000E+02 0.00000000E+00 0.00000000E+00
  2 1 3 9.25000000E-01 8.64000000E+02 0.00000000E+00 0.00000000E+00
  3 1 4 8.75000000E-01 8.64000000E+02 0.00000000E+00 0.00000000E+00
  3 1 5 8.75000000E-01 8.64000000E+02 0.00000000E+00 0.00000000E+00
END period  6

BEGIN period  7
  1 1 1 9.75000000E-01 8.64000000E+02 0.00000000E+00 0.00000000E+00
  1 1 2 9.25000000E-01 8.64000000E+02 0.00000000E+00 0.00000000E+00
  2 1 3 9.25000000E-01 8.64000000E+02 0.00000000E+00 0.00000000E+00
  3 1 4 8.75000000E-01 8.64000000E+02 0.00000000E+00 0.00000000E+00
  3 1 5 8.75000000E-01 8.64000000E+02 0.00000000E+00 0.00000000E+00
END period  7

BEGIN period  8
  1 1 1 9.75000000E-01 8.64000000E+02 0.00000000E+00 0.00000000E+00
  1 1 2 9.25000000E-01 8.64000000E+02 0.00000000E+00 0.00000000E+00
  2 1 3 9.25000000E-01 8.64000000E+02 0.00000000E+00 0.00000000E+00
  3 1 4 8.75000000E-01 8.64000000E+02 0.00000000E+00 0.00000000E+00
  3 1 5 8.75000000E-01 8.64000000E+02 0.00000000E+00 0.00000000E+00
END period  8

BEGIN period  9
  1 1 1 9.75000000E-01 8.64000000E+02 0.00000000E+00 0.00000000E+00
  1 1 2 9.25000000E-01 8.64000000E+02 0.00000000E+00 0.00000000E+00
  2 1 3 9.25000000E-01 8.64000000E+02 0.00000000E+00 0.00000000E+00
END period  9

BEGIN period  10
  1 1 1 9.75000000E-01 8.64000000E+02 0.00000000E+00 0.00000000E+00
  1 1 2 9.25000000E-01 8.64000000E+02 0.00000000E+00 0.00000000E+00
  2 1 3 9.25000000E-01 8.64000000E+02 0.00000000E+00 0.00000000E+00
END period  10

BEGIN period  11
  1 1 1 9.75000000E-01 8.64000000E+02 0.00000000E+00 0.00000000E+00
  1 1 2 9.25000000E-01 8.64000000E+02 0.00000000E+00 0.00000000E+00
  2 1 3 9.25000000E-01 8.64000000E+02 0.00000000E+00 0.00000000E+00
END period  11

BEGIN period  12
  1 1 1 9.75000000E-01 8.64000000E+02 0.00000000E+00 0.00000000E+00
  1 1 2 9.25000000E-01 8.64000000E+02 0.00000000E+00 0.00000000E+00
  2 1 3 9.25000000E-01 8.64000000E+02 0.00000000E+00 0.00000000E+00
END period  12

BEGIN period  13
  1 1 1 9.75000000E-01 8.64000000E+02 0.00000000E+00 0.00000000E+00
  1 1 2 9.25000000E-01 8.64000000E+02 0.00000000E+00 0.00000000E+00
  2 1 3 9.25000000E-01 8.64000000E+02 0.00000000E+00 0.00000000E+00
END period  13

BEGIN period  14
  1 1 1 9.75000000E-01 8.64000000E+02 0.00000000E+00 0.00000000E+00
  1 1 2 9.25000000E-01 8.64000000E+02 0.00000000E+00 0.00000000E+00
  2 1 3 9.25000000E-01 8.64000000E+02 0.00000000E+00 0.00000000E+00
END period  14

BEGIN period  15
  1 1 1 9.75000000E-01 8.64000000E+02 0.00000000E+00 0.00000000E+00
  1 1 2 9.25000000E-01 8.64000000E+02 0.00000000E+00 0.00000000E+00
  2 1 3 9.25000000E-01 8.64000000E+02 0.00000000E+00 0.00000000E+00
END period  15

BEGIN period  16
  1 1 1 9.75000000E-01 8.64000000E+02 0.00000000E+00 0.00000000E+00
  1 1 2 9.25000000E-01 8.64000000E+02 0.00000000E+00 0.00000000E+00
  2 1 3 9.25000000E-01 8.64000000E+02 0.00000000E+00 0.00000000E+00
END period  16

BEGIN period  17
  1 1 1 9.75000000E-01 8.64000000E+02 0.00000000E+00 0.00000000E+00
  1 1 2 9.25000000E-01 8.64000000E+02 0.00000000E+00 0.00000000E+00
  2 1 3 9.25000000E-01 8.64000000E+02 0.00000000E+00 0.00000000E+00
END period  17

BEGIN period  18
  1 1 1 9.75000000E-01 8.64000000E+02 0.00000000E+00 0.00000000E+00
  1 1 2 9.25000000E-01 8.64000000E+02 0.00000000E+00 0.00000000E+00
  2 1 3 9.25000000E-01 8.64000000E+02 0.00000000E+00 0.00000000E+00
END period  18

BEGIN period  19
  1 1 1 9.75000000E-01 8.64000000E+02 0.00000000E+00 0.00000000E+00
  1 1 2 9.25000000E-01 8.64000000E+02 0.00000000E+00 0.00000000E+00
  2 1 3 9.25000000E-01 8.64000000E+02 0.00000000E+00 0.00000000E+00
END period  19

BEGIN period  20
  1 1 1 9.75000000E-01 8.64000000E+02 0.00000000E+00 0.00000000E+00
  1 1 2 9.25000000E-01 8.64000000E+02 0.00000000E+00 0.00000000E+00
  2 1 3 9.25000000E-01 8.64000000E+02 0.00000000E+00 0.00000000E+00
END period  20

BEGIN period  21
  1 1 1 9.75000000E-01 8.64000000E+02 0.00000000E+00 0.00000000E+00
  1 1 2 9.25000000E-01 8.64000000E+02 0.00000000E+00 0.00000000E+00
  2 1 3 9.25000000E-01 8.64000000E+02 0.00000000E+00 0.00000000E+00
END period  21

BEGIN period  22
  1 1 1 9.75000000E-01 8.64000000E+02 0.00000000E+00 0.00000000E+00
  1 1 2 9.25000000E-01 8.64000000E+02 0.00000000E+00 0.00000000E+00
  2 1 3 9.25000000E-01 8.64000000E+02 0.00000000E+00 0.00000000E+00
END period  22

BEGIN period  23
  1 1 1 9.75000000E-01 8.64000000E+02 0.00000000E+00 0.00000000E+00
  1 1 2 9.25000000E-01 8.64000000E+02 0.00000000E+00 0.00000000E+00
  2 1 3 9.25000000E-01 8.64000000E+02 0.00000000E+00 0.00000000E+00
END period  23

BEGIN period  24
  1 1 1 9.75000000E-01 8.64000000E+02 0.00000000E+00 0.00000000E+00
END period  24

BEGIN period  25
  1 1 1 9.75000000E-01 8.64000000E+02 0.00000000E+00 0.00000000E+00
END period  25

BEGIN period  26
  1 1 1 9.75000000E-01 8.64000000E+02 0.00000000E+00 0.00000000E+00
END period  26

BEGIN period  27
  1 1 1 9.75000000E-01 8.64000000E+02 0.00000000E+00 0.00000000E+00
END period  27

BEGIN period  28
  1 1 1 9.75000000E-01 8.64000000E+02 0.00000000E+00 0.00000000E+00
END period  28

BEGIN period  29
  1 1 1 9.75000000E-01 8.64000000E+02 0.00000000E+00 0.00000000E+00
END period  29

BEGIN period  30
  1 1 1 9.75000000E-01 8.64000000E+02 0.00000000E+00 0.00000000E+00
END period  30

BEGIN period  31
  1 1 1 9.75000000E-01 8.64000000E+02 0.00000000E+00 0.00000000E+00
END period  31