# Output control package file for MODFLOW, generated by Flopy. Output control by words option
HEAD PRINT FORMAT   0
HEAD SAVE UNIT    51
DRAWDOWN PRINT FORMAT   0
DRAWDOWN SAVE UNIT     0

PERIOD     1 STEP                                             1
  PRINT BUDGET
  SAVE HEAD

PERIOD     1 STEP                                             2
  PRINT BUDGET
  SAVE HEAD

PERIOD     1 STEP                                             3
  PRINT BUDGET
  SAVE HEAD

PERIOD     1 STEP                                             4
  PRINT BUDGET
  SAVE HEAD

PERIOD     1 STEP                                             5
  PRINT BUDGET
  SAVE HEAD

PERIOD     1 STEP                                             6
  PRINT BUDGET
  SAVE HEAD

PERIOD     1 STEP                                             7
  PRINT BUDGET
  SAVE HEAD

PERIOD     1 STEP                                             8
  PRINT BUDGET
  SAVE HEAD

PERIOD     1 STEP                                             9
  PRINT BUDGET
  SAVE HEAD

PERIOD     1 STEP                                            10
  PRINT BUDGET
  SAVE HEAD

PERIOD     1 STEP                                            11
  SAVE HEAD

PERIOD     1 STEP                                            12
  SAVE HEAD

PERIOD     1 STEP                                            13
  SAVE HEAD

PERIOD     1 STEP                                            14
  SAVE HEAD

PERIOD     1 STEP                                            15
  SAVE HEAD

PERIOD     1 STEP                                            16
  SAVE HEAD

PERIOD     1 STEP                                            17
  SAVE HEAD

PERIOD     1 STEP                                            18
  SAVE HEAD

PERIOD     1 STEP                                            19
  SAVE HEAD

PERIOD     1 STEP                                            20
  SAVE HEAD

PERIOD     1 STEP                                            21
  SAVE HEAD

PERIOD     1 STEP                                            22
  SAVE HEAD

PERIOD     1 STEP                                            23
  SAVE HEAD

PERIOD     1 STEP                                            24
  SAVE HEAD

PERIOD     1 STEP                                            25
  SAVE HEAD

PERIOD     1 STEP                                            26
  SAVE HEAD

PERIOD     1 STEP                                            27
  SAVE HEAD

PERIOD     1 STEP                                            28
  SAVE HEAD

PERIOD     1 STEP                                            29
  SAVE HEAD

PERIOD     1 STEP                                            30
  SAVE HEAD

PERIOD     1 STEP                                            31
  SAVE HEAD

PERIOD     1 STEP                                            32
  SAVE HEAD

PERIOD     1 STEP                                            33
  SAVE HEAD

PERIOD     1 STEP                                            34
  SAVE HEAD

PERIOD     1 STEP                                            35
  SAVE HEAD

PERIOD     1 STEP                                            36
  SAVE HEAD

PERIOD     1 STEP                                            37
  SAVE HEAD

PERIOD     1 STEP                                            38
  SAVE HEAD

PERIOD     1 STEP                                            39
  SAVE HEAD

PERIOD     1 STEP                                            40
  SAVE HEAD

PERIOD     1 STEP                                            41
  SAVE HEAD

PERIOD     1 STEP                                            42
  SAVE HEAD

PERIOD     1 STEP                                            43
  SAVE HEAD

PERIOD     1 STEP                                            44
  SAVE HEAD

PERIOD     1 STEP                                            45
  SAVE HEAD

PERIOD     1 STEP                                            46
  SAVE HEAD

PERIOD     1 STEP                                            47
  SAVE HEAD

PERIOD     1 STEP                                            48
  SAVE HEAD

PERIOD     1 STEP                                            49
  SAVE HEAD

PERIOD     1 STEP                                            50
  SAVE HEAD

PERIOD     1 STEP                                            51
  SAVE HEAD

PERIOD     1 STEP                                            52
  SAVE HEAD

PERIOD     1 STEP                                            53
  SAVE HEAD

PERIOD     1 STEP                                            54
  SAVE HEAD

PERIOD     1 STEP                                            55
  SAVE HEAD

PERIOD     1 STEP                                            56
  SAVE HEAD

PERIOD     1 STEP                                            57
  SAVE HEAD

PERIOD     1 STEP                                            58
  SAVE HEAD

PERIOD     1 STEP                                            59
  SAVE HEAD

PERIOD     1 STEP                                            60
  SAVE HEAD

PERIOD     1 STEP                                            61
  SAVE HEAD

PERIOD     1 STEP                                            62
  SAVE HEAD

PERIOD     1 STEP                                            63
  SAVE HEAD

PERIOD     1 STEP                                            64
  SAVE HEAD

PERIOD     1 STEP                                            65
  SAVE HEAD

PERIOD     1 STEP                                            66
  SAVE HEAD

PERIOD     1 STEP                                            67
  SAVE HEAD

PERIOD     1 STEP                                            68
  SAVE HEAD

PERIOD     1 STEP                                            69
  SAVE HEAD

PERIOD     1 STEP                                            70
  SAVE HEAD

PERIOD     1 STEP                                            71
  SAVE HEAD

PERIOD     1 STEP                                            72
  SAVE HEAD

PERIOD     1 STEP                                            73
  SAVE HEAD

PERIOD     1 STEP                                            74
  SAVE HEAD

PERIOD     1 STEP                                            75
  SAVE HEAD

PERIOD     1 STEP                                            76
  SAVE HEAD

PERIOD     1 STEP                                            77
  SAVE HEAD

PERIOD     1 STEP                                            78
  SAVE HEAD

PERIOD     1 STEP                                            79
  SAVE HEAD

PERIOD     1 STEP                                            80
  SAVE HEAD

PERIOD     1 STEP                                            81
  SAVE HEAD

PERIOD     1 STEP                                            82
  SAVE HEAD

PERIOD     1 STEP                                            83
  SAVE HEAD

PERIOD     1 STEP                                            84
  SAVE HEAD

PERIOD     1 STEP                                            85
  SAVE HEAD

PERIOD     1 STEP                                            86
  SAVE HEAD

PERIOD     1 STEP                                            87
  SAVE HEAD

PERIOD     1 STEP                                            88
  SAVE HEAD

PERIOD     1 STEP                                            89
  SAVE HEAD

PERIOD     1 STEP                                            90
  SAVE HEAD

PERIOD     1 STEP                                            91
  SAVE HEAD

PERIOD     1 STEP                                            92
  SAVE HEAD

PERIOD     1 STEP                                            93
  SAVE HEAD

PERIOD     1 STEP                                            94
  SAVE HEAD

PERIOD     1 STEP                                            95
  SAVE HEAD

PERIOD     1 STEP                                            96
  SAVE HEAD

PERIOD     1 STEP                                            97
  SAVE HEAD

PERIOD     1 STEP                                            98
  SAVE HEAD

PERIOD     1 STEP                                            99
  SAVE HEAD

PERIOD     1 STEP                                           100
  SAVE HEAD

PERIOD     1 STEP                                           101
  SAVE HEAD

PERIOD     1 STEP                                           102
  SAVE HEAD

PERIOD     1 STEP                                           103
  SAVE HEAD

PERIOD     1 STEP                                           104
  SAVE HEAD

PERIOD     1 STEP                                           105
  SAVE HEAD

PERIOD     1 STEP                                           106
  SAVE HEAD

PERIOD     1 STEP                                           107
  SAVE HEAD

PERIOD     1 STEP                                           108
  SAVE HEAD

PERIOD     1 STEP                                           109
  SAVE HEAD

PERIOD     1 STEP                                           110
  SAVE HEAD

PERIOD     1 STEP                                           111
  SAVE HEAD

PERIOD     1 STEP                                           112
  SAVE HEAD

PERIOD     1 STEP                                           113
  SAVE HEAD

PERIOD     1 STEP                                           114
  SAVE HEAD

PERIOD     1 STEP                                           115
  SAVE HEAD

PERIOD     1 STEP                                           116
  SAVE HEAD

PERIOD     1 STEP                                           117
  SAVE HEAD

PERIOD     1 STEP                                           118
  SAVE HEAD

PERIOD     1 STEP                                           119
  SAVE HEAD

PERIOD     1 STEP                                           120
  SAVE HEAD

PERIOD     1 STEP                                           121
  SAVE HEAD

PERIOD     1 STEP                                           122
  SAVE HEAD

PERIOD     1 STEP                                           123
  SAVE HEAD

PERIOD     1 STEP                                           124
  SAVE HEAD

PERIOD     1 STEP                                           125
  SAVE HEAD

PERIOD     1 STEP                                           126
  SAVE HEAD

PERIOD     1 STEP                                           127
  SAVE HEAD

PERIOD     1 STEP                                           128
  SAVE HEAD

PERIOD     1 STEP                                           129
  SAVE HEAD

PERIOD     1 STEP                                           130
  SAVE HEAD

PERIOD     1 STEP                                           131
  SAVE HEAD

PERIOD     1 STEP                                           132
  SAVE HEAD

PERIOD     1 STEP                                           133
  SAVE HEAD

PERIOD     1 STEP                                           134
  SAVE HEAD

PERIOD     1 STEP                                           135
  SAVE HEAD

PERIOD     1 STEP                                           136
  SAVE HEAD

PERIOD     1 STEP                                           137
  SAVE HEAD

PERIOD     1 STEP                                           138
  SAVE HEAD

PERIOD     1 STEP                                           139
  SAVE HEAD

PERIOD     1 STEP                                           140
  SAVE HEAD

PERIOD     1 STEP                                           141
  SAVE HEAD

PERIOD     1 STEP                                           142
  SAVE HEAD

PERIOD     1 STEP                                           143
  SAVE HEAD

PERIOD     1 STEP                                           144
  SAVE HEAD

PERIOD     1 STEP                                           145
  SAVE HEAD

PERIOD     1 STEP                                           146
  SAVE HEAD

PERIOD     1 STEP                                           147
  SAVE HEAD

PERIOD     1 STEP                                           148
  SAVE HEAD

PERIOD     1 STEP                                           149
  SAVE HEAD

PERIOD     1 STEP                                           150
  SAVE HEAD

PERIOD     1 STEP                                           151
  SAVE HEAD

PERIOD     1 STEP                                           152
  SAVE HEAD

PERIOD     1 STEP                                           153
  SAVE HEAD

PERIOD     1 STEP                                           154
  SAVE HEAD

PERIOD     1 STEP                                           155
  SAVE HEAD

PERIOD     1 STEP                                           156
  SAVE HEAD

PERIOD     1 STEP                                           157
  SAVE HEAD

PERIOD     1 STEP                                           158
  SAVE HEAD

PERIOD     1 STEP                                           159
  SAVE HEAD

PERIOD     1 STEP                                           160
  SAVE HEAD

PERIOD     1 STEP                                           161
  SAVE HEAD

PERIOD     1 STEP                                           162
  SAVE HEAD

PERIOD     1 STEP                                           163
  SAVE HEAD

PERIOD     1 STEP                                           164
  SAVE HEAD

PERIOD     1 STEP                                           165
  SAVE HEAD

PERIOD     1 STEP                                           166
  SAVE HEAD

PERIOD     1 STEP                                           167
  SAVE HEAD

PERIOD     1 STEP                                           168
  SAVE HEAD

PERIOD     1 STEP                                           169
  SAVE HEAD

PERIOD     1 STEP                                           170
  SAVE HEAD

PERIOD     1 STEP                                           171
  SAVE HEAD

PERIOD     1 STEP                                           172
  SAVE HEAD

PERIOD     1 STEP                                           173
  SAVE HEAD

PERIOD     1 STEP                                           174
  SAVE HEAD

PERIOD     1 STEP                                           175
  SAVE HEAD

PERIOD     1 STEP                                           176
  SAVE HEAD

PERIOD     1 STEP                                           177
  SAVE HEAD

PERIOD     1 STEP                                           178
  SAVE HEAD

PERIOD     1 STEP                                           179
  SAVE HEAD

PERIOD     1 STEP                                           180
  SAVE HEAD

PERIOD     1 STEP                                           181
  SAVE HEAD

PERIOD     1 STEP                                           182
  SAVE HEAD

PERIOD     1 STEP                                           183
  SAVE HEAD

PERIOD     1 STEP                                           184
  SAVE HEAD

PERIOD     1 STEP                                           185
  SAVE HEAD

PERIOD     1 STEP                                           186
  SAVE HEAD

PERIOD     1 STEP                                           187
  SAVE HEAD

PERIOD     1 STEP                                           188
  SAVE HEAD

PERIOD     1 STEP                                           189
  SAVE HEAD

PERIOD     1 STEP                                           190
  SAVE HEAD

PERIOD     1 STEP                                           191
  SAVE HEAD

PERIOD     1 STEP                                           192
  SAVE HEAD

PERIOD     1 STEP                                           193
  SAVE HEAD

PERIOD     1 STEP                                           194
  SAVE HEAD

PERIOD     1 STEP                                           195
  SAVE HEAD

PERIOD     1 STEP                                           196
  SAVE HEAD

PERIOD     1 STEP                                           197
  SAVE HEAD

PERIOD     1 STEP                                           198
  SAVE HEAD

PERIOD     1 STEP                                           199
  SAVE HEAD

PERIOD     1 STEP                                           200
  SAVE HEAD

PERIOD     1 STEP                                           201
  SAVE HEAD

PERIOD     1 STEP                                           202
  SAVE HEAD

PERIOD     1 STEP                                           203
  SAVE HEAD

PERIOD     1 STEP                                           204
  SAVE HEAD

PERIOD     1 STEP                                           205
  SAVE HEAD

PERIOD     1 STEP                                           206
  SAVE HEAD

PERIOD     1 STEP                                           207
  SAVE HEAD

PERIOD     1 STEP                                           208
  SAVE HEAD

PERIOD     1 STEP                                           209
  SAVE HEAD

PERIOD     1 STEP                                           210
  SAVE HEAD

PERIOD     1 STEP                                           211
  SAVE HEAD

PERIOD     1 STEP                                           212
  SAVE HEAD

PERIOD     1 STEP                                           213
  SAVE HEAD

PERIOD     1 STEP                                           214
  SAVE HEAD

PERIOD     1 STEP                                           215
  SAVE HEAD

PERIOD     1 STEP                                           216
  SAVE HEAD

PERIOD     1 STEP                                           217
  SAVE HEAD

PERIOD     1 STEP                                           218
  SAVE HEAD

PERIOD     1 STEP                                           219
  SAVE HEAD

PERIOD     1 STEP                                           220
  SAVE HEAD

PERIOD     1 STEP                                           221
  SAVE HEAD

PERIOD     1 STEP                                           222
  SAVE HEAD

PERIOD     1 STEP                                           223
  SAVE HEAD

PERIOD     1 STEP                                           224
  SAVE HEAD

PERIOD     1 STEP                                           225
  SAVE HEAD

PERIOD     1 STEP                                           226
  SAVE HEAD

PERIOD     1 STEP                                           227
  SAVE HEAD

PERIOD     1 STEP                                           228
  SAVE HEAD

PERIOD     1 STEP                                           229
  SAVE HEAD

PERIOD     1 STEP                                           230
  SAVE HEAD

PERIOD     1 STEP                                           231
  SAVE HEAD

PERIOD     1 STEP                                           232
  SAVE HEAD

PERIOD     1 STEP                                           233
  SAVE HEAD

PERIOD     1 STEP                                           234
  SAVE HEAD

PERIOD     1 STEP                                           235
  SAVE HEAD

PERIOD     1 STEP                                           236
  SAVE HEAD

PERIOD     1 STEP                                           237
  SAVE HEAD

PERIOD     1 STEP                                           238
  SAVE HEAD

PERIOD     1 STEP                                           239
  SAVE HEAD

PERIOD     1 STEP                                           240
  SAVE HEAD

PERIOD     1 STEP                                           241
  SAVE HEAD

PERIOD     1 STEP                                           242
  SAVE HEAD

PERIOD     1 STEP                                           243
  SAVE HEAD

PERIOD     1 STEP                                           244
  SAVE HEAD

PERIOD     1 STEP                                           245
  SAVE HEAD

PERIOD     1 STEP                                           246
  SAVE HEAD

PERIOD     1 STEP                                           247
  SAVE HEAD

PERIOD     1 STEP                                           248
  SAVE HEAD

PERIOD     1 STEP                                           249
  SAVE HEAD

PERIOD     1 STEP                                           250
  SAVE HEAD

PERIOD     1 STEP                                           251
  SAVE HEAD

PERIOD     1 STEP                                           252
  SAVE HEAD

PERIOD     1 STEP                                           253
  SAVE HEAD

PERIOD     1 STEP                                           254
  SAVE HEAD

PERIOD     1 STEP                                           255
  SAVE HEAD

PERIOD     1 STEP                                           256
  SAVE HEAD

PERIOD     1 STEP                                           257
  SAVE HEAD

PERIOD     1 STEP                                           258
  SAVE HEAD

PERIOD     1 STEP                                           259
  SAVE HEAD

PERIOD     1 STEP                                           260
  SAVE HEAD

PERIOD     1 STEP                                           261
  SAVE HEAD

PERIOD     1 STEP                                           262
  SAVE HEAD

PERIOD     1 STEP                                           263
  SAVE HEAD

PERIOD     1 STEP                                           264
  SAVE HEAD

PERIOD     1 STEP                                           265
  SAVE HEAD

PERIOD     1 STEP                                           266
  SAVE HEAD

PERIOD     1 STEP                                           267
  SAVE HEAD

PERIOD     1 STEP                                           268
  SAVE HEAD

PERIOD     1 STEP                                           269
  SAVE HEAD

PERIOD     1 STEP                                           270
  SAVE HEAD

PERIOD     1 STEP                                           271
  SAVE HEAD

PERIOD     1 STEP                                           272
  SAVE HEAD

PERIOD     1 STEP                                           273
  SAVE HEAD

PERIOD     1 STEP                                           274
  SAVE HEAD

PERIOD     1 STEP                                           275
  SAVE HEAD

PERIOD     1 STEP                                           276
  SAVE HEAD

PERIOD     1 STEP                                           277
  SAVE HEAD

PERIOD     1 STEP                                           278
  SAVE HEAD

PERIOD     1 STEP                                           279
  SAVE HEAD

PERIOD     1 STEP                                           280
  SAVE HEAD

PERIOD     1 STEP                                           281
  SAVE HEAD

PERIOD     1 STEP                                           282
  SAVE HEAD

PERIOD     1 STEP                                           283
  SAVE HEAD

PERIOD     1 STEP                                           284
  SAVE HEAD

PERIOD     1 STEP                                           285
  SAVE HEAD

PERIOD     1 STEP                                           286
  SAVE HEAD

PERIOD     1 STEP                                           287
  SAVE HEAD

PERIOD     1 STEP                                           288
  SAVE HEAD

PERIOD     1 STEP                                           289
  SAVE HEAD

PERIOD     1 STEP                                           290
  SAVE HEAD

PERIOD     1 STEP                                           291
  SAVE HEAD

PERIOD     1 STEP                                           292
  SAVE HEAD

PERIOD     1 STEP                                           293
  SAVE HEAD

PERIOD     1 STEP                                           294
  SAVE HEAD

PERIOD     1 STEP                                           295
  SAVE HEAD

PERIOD     1 STEP                                           296
  SAVE HEAD

PERIOD     1 STEP                                           297
  SAVE HEAD

PERIOD     1 STEP                                           298
  SAVE HEAD

PERIOD     1 STEP                                           299
  SAVE HEAD

PERIOD     1 STEP                                           300
  SAVE HEAD

PERIOD     1 STEP                                           301
  SAVE HEAD

PERIOD     1 STEP                                           302
  SAVE HEAD

PERIOD     1 STEP                                           303
  SAVE HEAD

PERIOD     1 STEP                                           304
  SAVE HEAD

PERIOD     1 STEP                                           305
  SAVE HEAD

PERIOD     1 STEP                                           306
  SAVE HEAD

PERIOD     1 STEP                                           307
  SAVE HEAD

PERIOD     1 STEP                                           308
  SAVE HEAD

PERIOD     1 STEP                                           309
  SAVE HEAD

PERIOD     1 STEP                                           310
  SAVE HEAD

PERIOD     1 STEP                                           311
  SAVE HEAD

PERIOD     1 STEP                                           312
  SAVE HEAD

PERIOD     1 STEP                                           313
  SAVE HEAD

PERIOD     1 STEP                                           314
  SAVE HEAD

PERIOD     1 STEP                                           315
  SAVE HEAD

PERIOD     1 STEP                                           316
  SAVE HEAD

PERIOD     1 STEP                                           317
  SAVE HEAD

PERIOD     1 STEP                                           318
  SAVE HEAD

PERIOD     1 STEP                                           319
  SAVE HEAD

PERIOD     1 STEP                                           320
  SAVE HEAD

PERIOD     1 STEP                                           321
  SAVE HEAD

PERIOD     1 STEP                                           322
  SAVE HEAD

PERIOD     1 STEP                                           323
  SAVE HEAD

PERIOD     1 STEP                                           324
  SAVE HEAD

PERIOD     1 STEP                                           325
  SAVE HEAD

PERIOD     1 STEP                                           326
  SAVE HEAD

PERIOD     1 STEP                                           327
  SAVE HEAD

PERIOD     1 STEP                                           328
  SAVE HEAD

PERIOD     1 STEP                                           329
  SAVE HEAD

PERIOD     1 STEP                                           330
  SAVE HEAD

PERIOD     1 STEP                                           331
  SAVE HEAD

PERIOD     1 STEP                                           332
  SAVE HEAD

PERIOD     1 STEP                                           333
  SAVE HEAD

PERIOD     1 STEP                                           334
  SAVE HEAD

PERIOD     1 STEP                                           335
  SAVE HEAD

PERIOD     1 STEP                                           336
  SAVE HEAD

PERIOD     1 STEP                                           337
  SAVE HEAD

PERIOD     1 STEP                                           338
  SAVE HEAD

PERIOD     1 STEP                                           339
  SAVE HEAD

PERIOD     1 STEP                                           340
  SAVE HEAD

PERIOD     1 STEP                                           341
  SAVE HEAD

PERIOD     1 STEP                                           342
  SAVE HEAD

PERIOD     1 STEP                                           343
  SAVE HEAD

PERIOD     1 STEP                                           344
  SAVE HEAD

PERIOD     1 STEP                                           345
  SAVE HEAD

PERIOD     1 STEP                                           346
  SAVE HEAD

PERIOD     1 STEP                                           347
  SAVE HEAD

PERIOD     1 STEP                                           348
  SAVE HEAD

PERIOD     1 STEP                                           349
  SAVE HEAD

PERIOD     1 STEP                                           350
  SAVE HEAD

PERIOD     1 STEP                                           351
  SAVE HEAD

PERIOD     1 STEP                                           352
  SAVE HEAD

PERIOD     1 STEP                                           353
  SAVE HEAD

PERIOD     1 STEP                                           354
  SAVE HEAD

PERIOD     1 STEP                                           355
  SAVE HEAD

PERIOD     1 STEP                                           356
  SAVE HEAD

PERIOD     1 STEP                                           357
  SAVE HEAD

PERIOD     1 STEP                                           358
  SAVE HEAD

PERIOD     1 STEP                                           359
  SAVE HEAD

PERIOD     1 STEP                                           360
  SAVE HEAD

PERIOD     1 STEP                                           361
  SAVE HEAD

PERIOD     1 STEP                                           362
  SAVE HEAD

PERIOD     1 STEP                                           363
  SAVE HEAD

PERIOD     1 STEP                                           364
  SAVE HEAD

PERIOD     1 STEP                                           365
  SAVE HEAD

PERIOD     1 STEP                                           366
  SAVE HEAD

PERIOD     1 STEP                                           367
  SAVE HEAD

PERIOD     1 STEP                                           368
  SAVE HEAD

PERIOD     1 STEP                                           369
  SAVE HEAD

PERIOD     1 STEP                                           370
  SAVE HEAD
