# Salt Water Intrusion package file for MODFLOW-2005, generated by Flopy.
#--Dataset 1
         1         1         0        55         0         0
#--Dataset 2a
         1         0         3
#--Dataset 3a
  5.000000e-03  5.000000e-03
#--Dataset 4
        29         1          (20G13.0)         -1 
            0        0.025
#--Dataset 5
        29         1          (61G13.0)         -1 
          -10          -10          -10          -10          -10          -10          -10          -10          -10          -10          -10          -10          -10          -10          -10          -10          -10          -10          -10          -10          -10          -10          -10          -10          -10          -10          -10          -10          -10          -10          -10          -10          -10          -10          -10          -10          -10          -10          -10          -10          -10          -10          -10          -10          -10          -10          -10          -10          -10          -10          -10          -10          -10          -10          -10          -10          -10          -10          -10          -10          -10
          -10          -10          -10          -10          -10          -10          -10          -10          -10          -10          -10          -10          -10          -10          -10          -10          -10          -10          -10          -10          -10          -10          -10          -10          -10          -10          -10          -10          -10          -10          -10          -10          -10          -10          -10          -10          -10          -10          -10          -10          -10          -10          -10          -10          -10          -10          -10          -10          -10          -10          -10          -10          -10          -10          -10          -10          -10          -10          -10          -10          -10
          -10          -10          -10          -10          -10          -10          -10          -10          -10          -10          -10          -10          -10          -10          -10          -10          -10          -10          -10          -10          -10          -10          -10          -10          -10          -10          -10          -10          -10          -10          -10          -10          -10          -10          -10          -10          -10          -10          -10          -10          -10          -10          -10          -10          -10          -10          -10          -10          -10          -10          -10          -10          -10          -10          -10          -10          -10          -10          -10          -10          -10
          -10          -10          -10          -10          -10          -10          -10          -10          -10          -10          -10          -10          -10          -10          -10          -10          -10          -10          -10          -10          -10          -10          -10          -10          -10          -10          -10          -10          -10          -10          -10          -10          -10          -10          -10          -10          -10          -10          -10          -10          -10          -10          -10          -10          -10          -10          -10          -10          -10          -10          -10          -10          -10          -10          -10          -10          -10          -10          -10          -10          -10
          -10          -10          -10          -10          -10          -10          -10          -10          -10          -10          -10          -10          -10          -10          -10          -10          -10          -10          -10          -10          -10          -10          -10          -10          -10          -10          -10          -10          -10          -10          -10          -10          -10          -10          -10          -10          -10          -10          -10          -10          -10          -10          -10          -10          -10          -10          -10          -10          -10          -10          -10          -10          -10          -10          -10          -10          -10          -10          -10          -10          -10
          -10          -10          -10          -10          -10          -10          -10          -10          -10          -10          -10          -10          -10          -10          -10          -10          -10          -10          -10          -10          -10          -10          -10          -10          -10          -10          -10          -10          -10          -10          -10          -10          -10          -10          -10          -10          -10          -10          -10          -10          -10          -10          -10          -10          -10          -10          -10          -10          -10          -10          -10          -10          -10          -10          -10          -10          -10          -10          -10          -10          -10
          -10          -10          -10          -10          -10          -10          -10          -10          -10          -10          -10          -10          -10          -10          -10          -10          -10          -10          -10          -10          -10          -10          -10          -10          -10          -10          -10          -10          -10          -10          -10          -10          -10          -10          -10          -10          -10          -10          -10          -10          -10          -10          -10          -10          -10          -10          -10          -10          -10          -10          -10          -10          -10          -10          -10          -10          -10          -10          -10          -10          -10
          -10          -10          -10          -10          -10          -10          -10          -10          -10          -10          -10          -10          -10          -10          -10          -10          -10          -10          -10          -10          -10          -10          -10          -10          -10          -10          -10          -10          -10          -10          -10          -10          -10          -10          -10          -10          -10          -10          -10          -10          -10          -10          -10          -10          -10          -10          -10          -10          -10          -10          -10          -10          -10          -10          -10          -10          -10          -10          -10          -10          -10
          -10          -10          -10          -10          -10          -10          -10          -10          -10          -10          -10          -10          -10          -10          -10          -10          -10          -10          -10          -10          -10          -10          -10          -10          -10          -10          -10          -10          -10          -10          -10          -10          -10          -10          -10          -10          -10          -10          -10          -10          -10          -10          -10          -10          -10          -10          -10          -10          -10          -10          -10          -10          -10          -10          -10          -10          -10          -10          -10          -10          -10
          -10          -10          -10          -10          -10          -10          -10          -10          -10          -10          -10          -10          -10          -10          -10          -10          -10          -10          -10          -10          -10          -10          -10          -10          -10          -10          -10          -10          -10          -10          -10          -10          -10          -10          -10          -10          -10          -10          -10          -10          -10          -10          -10          -10          -10          -10          -10          -10          -10          -10          -10          -10          -10          -10          -10          -10          -10          -10          -10          -10          -10
          -10          -10          -10          -10          -10          -10          -10          -10          -10          -10          -11          -11          -11          -11          -11          -11          -11          -11          -11          -11          -11          -11          -11          -11          -11          -11          -11          -11          -11          -11          -11          -11          -11          -11          -11          -11          -11          -11          -11          -11          -11          -11          -11          -11          -11          -11          -11          -11          -11          -11          -11          -10          -10          -10          -10          -10          -10          -10          -10          -10          -10
          -10          -10          -10          -10          -10          -10          -10          -10          -10          -10          -11          -11          -11          -11          -11          -11          -11          -11          -11          -11          -11          -11          -11          -11          -11          -11          -11          -11          -11          -11          -11          -11          -11          -11          -11          -11          -11          -11          -11          -11          -11          -11          -11          -11          -11          -11          -11          -11          -11          -11          -11          -10          -10          -10          -10          -10          -10          -10          -10          -10          -10
          -10          -10          -10          -10          -10          -10          -10          -10          -10          -10          -11          -11          -11          -11          -11          -11          -11          -11          -11          -11          -11          -11          -11          -11          -11          -11          -11          -11          -11          -11          -11          -11          -11          -11          -11          -11          -11          -11          -11          -11          -11          -11          -11          -11          -11          -11          -11          -11          -11          -11          -11          -10          -10          -10          -10          -10          -10          -10          -10          -10          -10
          -10          -10          -10          -10          -10          -10          -10          -10          -10          -10          -11          -11          -11          -11          -11          -11          -11          -11          -11          -11          -11          -11          -11          -11          -11          -11          -11          -11          -11          -11          -11          -11          -11          -11          -11          -11          -11          -11          -11          -11          -11          -11          -11          -11          -11          -11          -11          -11          -11          -11          -11          -10          -10          -10          -10          -10          -10          -10          -10          -10          -10
          -10          -10          -10          -10          -10          -10          -10          -10          -10          -10          -11          -11          -11          -11          -11          -11          -11          -11          -11          -11          -11          -11          -11          -11          -11          -11          -11          -11          -11          -11          -11          -11          -11          -11          -11          -11          -11          -11          -11          -11          -11          -11          -11          -11          -11          -11          -11          -11          -11          -11          -11          -10          -10          -10          -10          -10          -10          -10          -10          -10          -10
          -10          -10          -10          -10          -10          -10          -10          -10          -10          -10          -11          -11          -11          -11          -11          -11          -11          -11          -11          -11          -11          -11          -11          -11          -11          -11          -11          -11          -11          -11          -11          -11          -11          -11          -11          -11          -11          -11          -11          -11          -11          -11          -11          -11          -11          -11          -11          -11          -11          -11          -11          -10          -10          -10          -10          -10          -10          -10          -10          -10          -10
          -10          -10          -10          -10          -10          -10          -10          -10          -10          -10          -11          -11          -11          -11          -11          -11          -11          -11          -11          -11          -11          -11          -11          -11          -11          -11          -11          -11          -11          -11          -11          -11          -11          -11          -11          -11          -11          -11          -11          -11          -11          -11          -11          -11          -11          -11          -11          -11          -11          -11          -11          -10          -10          -10          -10          -10          -10          -10          -10          -10          -10
          -10          -10          -10          -10          -10          -10          -10          -10          -10          -10          -11          -11          -11          -11          -11          -11          -11          -11          -11          -11          -11          -11          -11          -11          -11          -11          -11          -11          -11          -11          -11          -11          -11          -11          -11          -11          -11          -11          -11          -11          -11          -11          -11          -11          -11          -11          -11          -11          -11          -11          -11          -10          -10          -10          -10          -10          -10          -10          -10          -10          -10
          -10          -10          -10          -10          -10          -10          -10          -10          -10          -10          -11          -11          -11          -11          -11          -11          -11          -11          -11          -11          -11          -11          -11          -11          -11          -11          -11          -11          -11          -11          -11          -11          -11          -11          -11          -11          -11          -11          -11          -11          -11          -11          -11          -11          -11          -11          -11          -11          -11          -11          -11          -10          -10          -10          -10          -10          -10          -10          -10          -10          -10
          -10          -10          -10          -10          -10          -10          -10          -10          -10          -10          -11          -11          -11          -11          -11          -11          -11          -11          -11          -11          -11          -11          -11          -11          -11          -11          -11          -11          -11          -11          -11          -11          -11          -11          -11          -11          -11          -11          -11          -11          -11          -11          -11          -11          -11          -11          -11          -11          -11          -11          -11          -10          -10          -10          -10          -10          -10          -10          -10          -10          -10
          -10          -10          -10          -10          -10          -10          -10          -10          -10          -10          -11          -11          -11          -11          -11          -11          -11          -11          -11          -11          -11          -11          -11          -11          -11          -11          -11          -11          -11          -11          -11          -11          -11          -11          -11          -11          -11          -11          -11          -11          -11          -11          -11          -11          -11          -11          -11          -11          -11          -11          -11          -10          -10          -10          -10          -10          -10          -10          -10          -10          -10
          -10          -10          -10          -10          -10          -10          -10          -10          -10          -10          -11          -11          -11          -11          -11          -11          -11          -11          -11          -11          -11          -11          -11          -11          -11          -11          -11          -11          -11          -11          -11          -11          -11          -11          -11          -11          -11          -11          -11          -11          -11          -11          -11          -11          -11          -11          -11          -11          -11          -11          -11          -10          -10          -10          -10          -10          -10          -10          -10          -10          -10
          -10          -10          -10          -10          -10          -10          -10          -10          -10          -10          -11          -11          -11          -11          -11          -11          -11          -11          -11          -11          -11          -11          -11          -11          -11          -11          -11          -11          -11          -11          -11          -11          -11          -11          -11          -11          -11          -11          -11          -11          -11          -11          -11          -11          -11          -11          -11          -11          -11          -11          -11          -10          -10          -10          -10          -10          -10          -10          -10          -10          -10
          -10          -10          -10          -10          -10          -10          -10          -10          -10          -10          -11          -11          -11          -11          -11          -11          -11          -11          -11          -11          -11          -11          -11          -11          -11          -11          -11          -11          -11          -11          -11          -11          -11          -11          -11          -11          -11          -11          -11          -11          -11          -11          -11          -11          -11          -11          -11          -11          -11          -11          -11          -10          -10          -10          -10          -10          -10          -10          -10          -10          -10
          -10          -10          -10          -10          -10          -10          -10          -10          -10          -10          -11          -11          -11          -11          -11          -11          -11          -11          -11          -11          -11          -11          -11          -11          -11          -11          -11          -11          -11          -11          -11          -11          -11          -11          -11          -11          -11          -11          -11          -11          -11          -11          -11          -11          -11          -11          -11          -11          -11          -11          -11          -10          -10          -10          -10          -10          -10          -10          -10          -10          -10
          -10          -10          -10          -10          -10          -10          -10          -10          -10          -10          -11          -11          -11          -11          -11          -11          -11          -11          -11          -11          -11          -11          -11          -11          -11          -11          -11          -11          -11          -11          -11          -11          -11          -11          -11          -11          -11          -11          -11          -11          -11          -11          -11          -11          -11          -11          -11          -11          -11          -11          -11          -10          -10          -10          -10          -10          -10          -10          -10          -10          -10
          -10          -10          -10          -10          -10          -10          -10          -10          -10          -10          -11          -11          -11          -11          -11          -11          -11          -11          -11          -11          -11          -11          -11          -11          -11          -11          -11          -11          -11          -11          -11          -11          -11          -11          -11          -11          -11          -11          -11          -11          -11          -11          -11          -11          -11          -11          -11          -11          -11          -11          -11          -10          -10          -10          -10          -10          -10          -10          -10          -10          -10
          -10          -10          -10          -10          -10          -10          -10          -10          -10          -10          -11          -11          -11          -11          -11          -11          -11          -11          -11          -11          -11          -11          -11          -11          -11          -11          -11          -11          -11          -11          -11          -11          -11          -11          -11          -11          -11          -11          -11          -11          -11          -11          -11          -11          -11          -11          -11          -11          -11          -11          -11          -10          -10          -10          -10          -10          -10          -10          -10          -10          -10
          -10          -10          -10          -10          -10          -10          -10          -10          -10          -10          -11          -11          -11          -11          -11          -11          -11          -11          -11          -11          -11          -11          -11          -11          -11          -11          -11          -11          -11          -11          -11          -11          -11          -11          -11          -11          -11          -11          -11          -11          -11          -11          -11          -11          -11          -11          -11          -11          -11          -11          -11          -10          -10          -10          -10          -10          -10          -10          -10          -10          -10
          -10          -10          -10          -10          -10          -10          -10          -10          -10          -10          -11          -11          -11          -11          -11          -11          -11          -11          -11          -11          -11          -11          -11          -11          -11          -11          -11          -11          -11          -11          -11          -11          -11          -11          -11          -11          -11          -11          -11          -11          -11          -11          -11          -11          -11          -11          -11          -11          -11          -11          -11          -10          -10          -10          -10          -10          -10          -10          -10          -10          -10
          -10          -10          -10          -10          -10          -10          -10          -10          -10          -10          -11          -11          -11          -11          -11          -11          -11          -11          -11          -11          -11          -11          -11          -11          -11          -11          -11          -11          -11          -11          -11          -11          -11          -11          -11          -11          -11          -11          -11          -11          -11          -11          -11          -11          -11          -11          -11          -11          -11          -11          -11          -10          -10          -10          -10          -10          -10          -10          -10          -10          -10
          -10          -10          -10          -10          -10          -10          -10          -10          -10          -10          -11          -11          -11          -11          -11          -11          -11          -11          -11          -11          -11          -11          -11          -11          -11          -11          -11          -11          -11          -11          -11          -11          -11          -11          -11          -11          -11          -11          -11          -11          -11          -11          -11          -11          -11          -11          -11          -11          -11          -11          -11          -10          -10          -10          -10          -10          -10          -10          -10          -10          -10
          -10          -10          -10          -10          -10          -10          -10          -10          -10          -10          -11          -11          -11          -11          -11          -11          -11          -11          -11          -11          -11          -11          -11          -11          -11          -11          -11          -11          -11          -11          -11          -11          -11          -11          -11          -11          -11          -11          -11          -11          -11          -11          -11          -11          -11          -11          -11          -11          -11          -11          -11          -10          -10          -10          -10          -10          -10          -10          -10          -10          -10
          -10          -10          -10          -10          -10          -10          -10          -10          -10          -10          -11          -11          -11          -11          -11          -11          -11          -11          -11          -11          -11          -11          -11          -11          -11          -11          -11          -11          -11          -11          -11          -11          -11          -11          -11          -11          -11          -11          -11          -11          -11          -11          -11          -11          -11          -11          -11          -11          -11          -11          -11          -10          -10          -10          -10          -10          -10          -10          -10          -10          -10
          -10          -10          -10          -10          -10          -10          -10          -10          -10          -10          -11          -11          -11          -11          -11          -11          -11          -11          -11          -11          -11          -11          -11          -11          -11          -11          -11          -11          -11          -11          -11          -11          -11          -11          -11          -11          -11          -11          -11          -11          -11          -11          -11          -11          -11          -11          -11          -11          -11          -11          -11          -10          -10          -10          -10          -10          -10          -10          -10          -10          -10
          -10          -10          -10          -10          -10          -10          -10          -10          -10          -10          -11          -11          -11          -11          -11          -11          -11          -11          -11          -11          -11          -11          -11          -11          -11          -11          -11          -11          -11          -11          -11          -11          -11          -11          -11          -11          -11          -11          -11          -11          -11          -11          -11          -11          -11          -11          -11          -11          -11          -11          -11          -10          -10          -10          -10          -10          -10          -10          -10          -10          -10
          -10          -10          -10          -10          -10          -10          -10          -10          -10          -10          -11          -11          -11          -11          -11          -11          -11          -11          -11          -11          -11          -11          -11          -11          -11          -11          -11          -11          -11          -11          -11          -11          -11          -11          -11          -11          -11          -11          -11          -11          -11          -11          -11          -11          -11          -11          -11          -11          -11          -11          -11          -10          -10          -10          -10          -10          -10          -10          -10          -10          -10