# Basic package file for MODFLOW, generated by Flopy.
 FREE
CONSTANT          1                                #ibound Layer 1                
CONSTANT          1                                #ibound Layer 2                
CONSTANT          1                                #ibound Layer 3                
        -999.99
CONSTANT    1.000000E+00                           #strt Layer 1                  
CONSTANT    1.000000E+00                           #strt Layer 2                  
CONSTANT    1.000000E+00                           #strt Layer 3                  
