# Basic package file for MODFLOW, generated by Flopy.
 FREE
INTERNAL               1   (60I10)  -1 #ibound Layer 1                
        -1         1         1         1         1         1         1         1         1         1         1         1         1         1         1         1         1         1         1         1         1         1         1         1         1         1         1         1         1         1         1         1         1         1         1         1         1         1         1         1         1         1         1         1         1         1         1         1         1         1         1         1         1         1         1         1         1         1         1         1
        -999.99
CONSTANT    5.000000E-02                           #strt Layer 1                  
