# Salt Water Intrusion (SWI2) package file for MODFLOW-2005, generated by Flopy.
# Dataset 1
         1         1         0        55        53         0
# Dataset 2a
         1         0         3
# Dataset 3a
          0.01          0.04
# Dataset 4
INTERNAL               1  (2G15.6)  -1 #nu                            
   0.000000E+00   2.500000E-02
# Dataset 5
INTERNAL               1 (200G15.6)  -1 #zeta_1 Layer 1                
  -9.000000E+00  -9.000000E+00  -9.000000E+00  -9.000000E+00  -9.000000E+00  -9.000000E+00  -9.000000E+00  -9.000000E+00  -9.000000E+00  -9.000000E+00  -9.000000E+00  -9.000000E+00  -9.000000E+00  -9.000000E+00  -9.000000E+00  -9.000000E+00  -9.000000E+00  -9.000000E+00  -9.000000E+00  -9.000000E+00  -9.000000E+00  -9.000000E+00  -9.000000E+00  -9.000000E+00  -9.000000E+00  -9.500000E+00  -1.000000E+01  -1.050000E+01  -1.100000E+01  -1.150000E+01  -1.200000E+01  -1.250000E+01  -1.300000E+01  -1.350000E+01  -1.400000E+01  -1.450000E+01  -1.500000E+01  -1.550000E+01  -1.600000E+01  -1.650000E+01  -1.700000E+01  -1.750000E+01  -1.800000E+01  -1.850000E+01  -1.900000E+01  -1.950000E+01  -2.000000E+01  -2.050000E+01  -2.100000E+01  -2.150000E+01  -2.200000E+01  -2.250000E+01  -2.300000E+01  -2.350000E+01  -2.400000E+01  -2.450000E+01  -2.500000E+01  -2.550000E+01  -2.600000E+01  -2.650000E+01  -2.700000E+01  -2.750000E+01  -2.800000E+01  -2.850000E+01  -2.900000E+01  -2.950000E+01  -3.000000E+01  -3.050000E+01  -3.100000E+01  -3.150000E+01  -3.200000E+01  -3.250000E+01  -3.300000E+01  -3.350000E+01  -3.400000E+01  -3.450000E+01  -3.500000E+01  -3.550000E+01  -3.600000E+01  -3.650000E+01  -3.700000E+01  -3.750000E+01  -3.800000E+01  -3.850000E+01  -3.900000E+01  -3.950000E+01  -4.000000E+01  -4.050000E+01  -4.100000E+01  -4.150000E+01  -4.200000E+01  -4.250000E+01  -4.300000E+01  -4.350000E+01  -4.400000E+01  -4.450000E+01  -4.500000E+01  -4.550000E+01  -4.600000E+01  -4.650000E+01  -4.700000E+01  -4.750000E+01  -4.800000E+01  -4.850000E+01  -4.900000E+01  -4.950000E+01  -5.000000E+01  -5.000000E+01  -5.000000E+01  -5.000000E+01  -5.000000E+01  -5.000000E+01  -5.000000E+01  -5.000000E+01  -5.000000E+01  -5.000000E+01  -5.000000E+01  -5.000000E+01  -5.000000E+01  -5.000000E+01  -5.000000E+01  -5.000000E+01  -5.000000E+01  -5.000000E+01  -5.000000E+01  -5.000000E+01  -5.000000E+01  -5.000000E+01  -5.000000E+01  -5.000000E+01  -5.000000E+01  -5.000000E+01  -5.000000E+01  -5.000000E+01  -5.000000E+01  -5.000000E+01  -5.000000E+01  -5.000000E+01  -5.000000E+01  -5.000000E+01  -5.000000E+01  -5.000000E+01  -5.000000E+01  -5.000000E+01  -5.000000E+01  -5.000000E+01  -5.000000E+01  -5.000000E+01  -5.000000E+01  -5.000000E+01  -5.000000E+01  -5.000000E+01  -5.000000E+01  -5.000000E+01  -5.000000E+01  -5.000000E+01  -5.000000E+01  -5.000000E+01  -5.000000E+01  -5.000000E+01  -5.000000E+01  -5.000000E+01  -5.000000E+01  -5.000000E+01  -5.000000E+01  -5.000000E+01  -5.000000E+01  -5.000000E+01  -5.000000E+01  -5.000000E+01  -5.000000E+01  -5.000000E+01  -5.000000E+01  -5.000000E+01  -5.000000E+01  -5.000000E+01  -5.000000E+01  -5.000000E+01  -5.000000E+01  -5.000000E+01  -5.000000E+01  -5.000000E+01  -5.000000E+01  -5.000000E+01  -5.000000E+01  -5.000000E+01  -5.000000E+01  -5.000000E+01  -5.000000E+01  -5.000000E+01  -5.000000E+01  -5.000000E+01  -5.000000E+01  -5.000000E+01  -5.000000E+01  -5.000000E+01  -5.000000E+01  -5.000000E+01  -5.000000E+01  -5.000000E+01
INTERNAL               1 (200G15.6)  -1 #zeta_1 Layer 2                
  -9.000000E+00  -9.000000E+00  -9.000000E+00  -9.000000E+00  -9.000000E+00  -9.000000E+00  -9.000000E+00  -9.000000E+00  -9.000000E+00  -9.000000E+00  -9.000000E+00  -9.000000E+00  -9.000000E+00  -9.000000E+00  -9.000000E+00  -9.000000E+00  -9.000000E+00  -9.000000E+00  -9.000000E+00  -9.000000E+00  -9.000000E+00  -9.000000E+00  -9.000000E+00  -9.000000E+00  -9.000000E+00  -9.500000E+00  -1.000000E+01  -1.050000E+01  -1.100000E+01  -1.150000E+01  -1.200000E+01  -1.250000E+01  -1.300000E+01  -1.350000E+01  -1.400000E+01  -1.450000E+01  -1.500000E+01  -1.550000E+01  -1.600000E+01  -1.650000E+01  -1.700000E+01  -1.750000E+01  -1.800000E+01  -1.850000E+01  -1.900000E+01  -1.950000E+01  -2.000000E+01  -2.050000E+01  -2.100000E+01  -2.150000E+01  -2.200000E+01  -2.250000E+01  -2.300000E+01  -2.350000E+01  -2.400000E+01  -2.450000E+01  -2.500000E+01  -2.550000E+01  -2.600000E+01  -2.650000E+01  -2.700000E+01  -2.750000E+01  -2.800000E+01  -2.850000E+01  -2.900000E+01  -2.950000E+01  -3.000000E+01  -3.050000E+01  -3.100000E+01  -3.150000E+01  -3.200000E+01  -3.250000E+01  -3.300000E+01  -3.350000E+01  -3.400000E+01  -3.450000E+01  -3.500000E+01  -3.550000E+01  -3.600000E+01  -3.650000E+01  -3.700000E+01  -3.750000E+01  -3.800000E+01  -3.850000E+01  -3.900000E+01  -3.950000E+01  -4.000000E+01  -4.050000E+01  -4.100000E+01  -4.150000E+01  -4.200000E+01  -4.250000E+01  -4.300000E+01  -4.350000E+01  -4.400000E+01  -4.450000E+01  -4.500000E+01  -4.550000E+01  -4.600000E+01  -4.650000E+01  -4.700000E+01  -4.750000E+01  -4.800000E+01  -4.850000E+01  -4.900000E+01  -4.950000E+01  -5.000000E+01  -5.000000E+01  -5.000000E+01  -5.000000E+01  -5.000000E+01  -5.000000E+01  -5.000000E+01  -5.000000E+01  -5.000000E+01  -5.000000E+01  -5.000000E+01  -5.000000E+01  -5.000000E+01  -5.000000E+01  -5.000000E+01  -5.000000E+01  -5.000000E+01  -5.000000E+01  -5.000000E+01  -5.000000E+01  -5.000000E+01  -5.000000E+01  -5.000000E+01  -5.000000E+01  -5.000000E+01  -5.000000E+01  -5.000000E+01  -5.000000E+01  -5.000000E+01  -5.000000E+01  -5.000000E+01  -5.000000E+01  -5.000000E+01  -5.000000E+01  -5.000000E+01  -5.000000E+01  -5.000000E+01  -5.000000E+01  -5.000000E+01  -5.000000E+01  -5.000000E+01  -5.000000E+01  -5.000000E+01  -5.000000E+01  -5.000000E+01  -5.000000E+01  -5.000000E+01  -5.000000E+01  -5.000000E+01  -5.000000E+01  -5.000000E+01  -5.000000E+01  -5.000000E+01  -5.000000E+01  -5.000000E+01  -5.000000E+01  -5.000000E+01  -5.000000E+01  -5.000000E+01  -5.000000E+01  -5.000000E+01  -5.000000E+01  -5.000000E+01  -5.000000E+01  -5.000000E+01  -5.000000E+01  -5.000000E+01  -5.000000E+01  -5.000000E+01  -5.000000E+01  -5.000000E+01  -5.000000E+01  -5.000000E+01  -5.000000E+01  -5.000000E+01  -5.000000E+01  -5.000000E+01  -5.000000E+01  -5.000000E+01  -5.000000E+01  -5.000000E+01  -5.000000E+01  -5.000000E+01  -5.000000E+01  -5.000000E+01  -5.000000E+01  -5.000000E+01  -5.000000E+01  -5.000000E+01  -5.000000E+01  -5.000000E+01  -5.000000E+01  -5.000000E+01  -5.000000E+01
INTERNAL               1 (200G15.6)  -1 #zeta_1 Layer 3                
  -9.000000E+00  -9.000000E+00  -9.000000E+00  -9.000000E+00  -9.000000E+00  -9.000000E+00  -9.000000E+00  -9.000000E+00  -9.000000E+00  -9.000000E+00  -9.000000E+00  -9.000000E+00  -9.000000E+00  -9.000000E+00  -9.000000E+00  -9.000000E+00  -9.000000E+00  -9.000000E+00  -9.000000E+00  -9.000000E+00  -9.000000E+00  -9.000000E+00  -9.000000E+00  -9.000000E+00  -9.000000E+00  -9.500000E+00  -1.000000E+01  -1.050000E+01  -1.100000E+01  -1.150000E+01  -1.200000E+01  -1.250000E+01  -1.300000E+01  -1.350000E+01  -1.400000E+01  -1.450000E+01  -1.500000E+01  -1.550000E+01  -1.600000E+01  -1.650000E+01  -1.700000E+01  -1.750000E+01  -1.800000E+01  -1.850000E+01  -1.900000E+01  -1.950000E+01  -2.000000E+01  -2.050000E+01  -2.100000E+01  -2.150000E+01  -2.200000E+01  -2.250000E+01  -2.300000E+01  -2.350000E+01  -2.400000E+01  -2.450000E+01  -2.500000E+01  -2.550000E+01  -2.600000E+01  -2.650000E+01  -2.700000E+01  -2.750000E+01  -2.800000E+01  -2.850000E+01  -2.900000E+01  -2.950000E+01  -3.000000E+01  -3.050000E+01  -3.100000E+01  -3.150000E+01  -3.200000E+01  -3.250000E+01  -3.300000E+01  -3.350000E+01  -3.400000E+01  -3.450000E+01  -3.500000E+01  -3.550000E+01  -3.600000E+01  -3.650000E+01  -3.700000E+01  -3.750000E+01  -3.800000E+01  -3.850000E+01  -3.900000E+01  -3.950000E+01  -4.000000E+01  -4.050000E+01  -4.100000E+01  -4.150000E+01  -4.200000E+01  -4.250000E+01  -4.300000E+01  -4.350000E+01  -4.400000E+01  -4.450000E+01  -4.500000E+01  -4.550000E+01  -4.600000E+01  -4.650000E+01  -4.700000E+01  -4.750000E+01  -4.800000E+01  -4.850000E+01  -4.900000E+01  -4.950000E+01  -5.000000E+01  -5.000000E+01  -5.000000E+01  -5.000000E+01  -5.000000E+01  -5.000000E+01  -5.000000E+01  -5.000000E+01  -5.000000E+01  -5.000000E+01  -5.000000E+01  -5.000000E+01  -5.000000E+01  -5.000000E+01  -5.000000E+01  -5.000000E+01  -5.000000E+01  -5.000000E+01  -5.000000E+01  -5.000000E+01  -5.000000E+01  -5.000000E+01  -5.000000E+01  -5.000000E+01  -5.000000E+01  -5.000000E+01  -5.000000E+01  -5.000000E+01  -5.000000E+01  -5.000000E+01  -5.000000E+01  -5.000000E+01  -5.000000E+01  -5.000000E+01  -5.000000E+01  -5.000000E+01  -5.000000E+01  -5.000000E+01  -5.000000E+01  -5.000000E+01  -5.000000E+01  -5.000000E+01  -5.000000E+01  -5.000000E+01  -5.000000E+01  -5.000000E+01  -5.000000E+01  -5.000000E+01  -5.000000E+01  -5.000000E+01  -5.000000E+01  -5.000000E+01  -5.000000E+01  -5.000000E+01  -5.000000E+01  -5.000000E+01  -5.000000E+01  -5.000000E+01  -5.000000E+01  -5.000000E+01  -5.000000E+01  -5.000000E+01  -5.000000E+01  -5.000000E+01  -5.000000E+01  -5.000000E+01  -5.000000E+01  -5.000000E+01  -5.000000E+01  -5.000000E+01  -5.000000E+01  -5.000000E+01  -5.000000E+01  -5.000000E+01  -5.000000E+01  -5.000000E+01  -5.000000E+01  -5.000000E+01  -5.000000E+01  -5.000000E+01  -5.000000E+01  -5.000000E+01  -5.000000E+01  -5.000000E+01  -5.000000E+01  -5.000000E+01  -5.000000E+01  -5.000000E+01  -5.000000E+01  -5.000000E+01  -5.000000E+01  -5.000000E+01  -5.000000E+01  -5.000000E+01
# Dataset 6
CONSTANT    2.000000E-01                           #ssz Layer 1                   
CONSTANT    2.000000E-01                           #ssz Layer 2                   
CONSTANT    2.000000E-01                           #ssz Layer 3                   
# Dataset 7
INTERNAL               1  (200I10)  -1 #isource Layer 1               
        -2        -2        -2        -2        -2        -2        -2        -2        -2        -2        -2        -2        -2        -2        -2        -2        -2        -2        -2        -2        -2        -2        -2        -2        -2        -2        -2        -2        -2        -2         0         0         0         0         0         0         0         0         0         0         0         0         0         0         0         0         0         0         0         0         0         0         0         0         0         0         0         0         0         0         0         0         0         0         0         0         0         0         0         0         0         0         0         0         0         0         0         0         0         0         0         0         0         0         0         0         0         0         0         0         0         0         0         0         0         0         0         0         0         0         0         0         0         0         0         0         0         0         0         0         0         0         0         0         0         0         0         0         0         0         0         0         0         0         0         0         0         0         0         0         0         0         0         0         0         0         0         0         0         0         0         0         0         0         0         0         0         0         0         0         0         0         0         0         0         0         0         0         0         0         0         0         0         0         0         0         0         0         0         0         0         0         0         0         0         0         0         0         0         0         0         0         0         0         0         0         0         0         0         0         0         0         0         0         0         0         0         0         0         0
INTERNAL               1  (200I10)  -1 #isource Layer 2               
        -2        -2        -2        -2        -2        -2        -2        -2        -2        -2        -2        -2        -2        -2        -2        -2        -2        -2        -2        -2        -2        -2        -2        -2        -2        -2        -2        -2        -2        -2         0         0         0         0         0         0         0         0         0         0         0         0         0         0         0         0         0         0         0         0         0         0         0         0         0         0         0         0         0         0         0         0         0         0         0         0         0         0         0         0         0         0         0         0         0         0         0         0         0         0         0         0         0         0         0         0         0         0         0         0         0         0         0         0         0         0         0         0         0         0         0         0         0         0         0         0         0         0         0         0         0         0         0         0         0         0         0         0         0         0         0         0         0         0         0         0         0         0         0         0         0         0         0         0         0         0         0         0         0         0         0         0         0         0         0         0         0         0         0         0         0         0         0         0         0         0         0         0         0         0         0         0         0         0         0         0         0         0         0         0         0         0         0         0         0         0         0         0         0         0         0         0         0         0         0         0         0         0         0         0         0         0         0         0         0         0         0         0         0         0
INTERNAL               1  (200I10)  -1 #isource Layer 3               
        -2        -2        -2        -2        -2        -2        -2        -2        -2        -2        -2        -2        -2        -2        -2        -2        -2        -2        -2        -2        -2        -2        -2        -2        -2        -2        -2        -2        -2        -2         0         0         0         0         0         0         0         0         0         0         0         0         0         0         0         0         0         0         0         0         0         0         0         0         0         0         0         0         0         0         0         0         0         0         0         0         0         0         0         0         0         0         0         0         0         0         0         0         0         0         0         0         0         0         0         0         0         0         0         0         0         0         0         0         0         0         0         0         0         0         0         0         0         0         0         0         0         0         0         0         0         0         0         0         0         0         0         0         0         0         0         0         0         0         0         0         0         0         0         0         0         0         0         0         0         0         0         0         0         0         0         0         0         0         0         0         0         0         0         0         0         0         0         0         0         0         0         0         0         0         0         0         0         0         0         0         0         0         0         0         0         0         0         0         0         0         0         0         0         0         0         0         0         0         0         0         0         0         0         0         0         0         0         0         0         0         0         0         0         0
