# Salt Water Intrusion (SWI2) package file for MODFLOW-2005, generated by Flopy.
# Dataset 1
         2         1         0        55        53         0
# Dataset 2a
         1         0         3
# Dataset 3a
           0.2           0.2
# Dataset 4
INTERNAL               1  (3G15.6)  -1 #nu                            
   0.000000E+00   1.250000E-02   2.500000E-02
# Dataset 5
INTERNAL               1 (60G15.6)  -1 #zeta_1 Layer 1                
   0.000000E+00   0.000000E+00   0.000000E+00   0.000000E+00   0.000000E+00   0.000000E+00   0.000000E+00   0.000000E+00   0.000000E+00   0.000000E+00   0.000000E+00   0.000000E+00   0.000000E+00   0.000000E+00   0.000000E+00   0.000000E+00   0.000000E+00   0.000000E+00   0.000000E+00   0.000000E+00   0.000000E+00   0.000000E+00   0.000000E+00   0.000000E+00   0.000000E+00   0.000000E+00   0.000000E+00   0.000000E+00   0.000000E+00   0.000000E+00  -2.500000E+00  -7.500000E+00  -1.250000E+01  -1.750000E+01  -2.250000E+01  -2.750000E+01  -3.250000E+01  -3.750000E+01  -4.000000E+01  -4.000000E+01  -4.000000E+01  -4.000000E+01  -4.000000E+01  -4.000000E+01  -4.000000E+01  -4.000000E+01  -4.000000E+01  -4.000000E+01  -4.000000E+01  -4.000000E+01  -4.000000E+01  -4.000000E+01  -4.000000E+01  -4.000000E+01  -4.000000E+01  -4.000000E+01  -4.000000E+01  -4.000000E+01  -4.000000E+01  -4.000000E+01
INTERNAL               1 (60G15.6)  -1 #zeta_2 Layer 1                
   0.000000E+00   0.000000E+00   0.000000E+00   0.000000E+00   0.000000E+00   0.000000E+00   0.000000E+00   0.000000E+00   0.000000E+00   0.000000E+00   0.000000E+00   0.000000E+00   0.000000E+00   0.000000E+00   0.000000E+00   0.000000E+00   0.000000E+00   0.000000E+00   0.000000E+00   0.000000E+00   0.000000E+00   0.000000E+00  -2.500000E+00  -7.500000E+00  -1.250000E+01  -1.750000E+01  -2.250000E+01  -2.750000E+01  -3.250000E+01  -3.750000E+01  -4.000000E+01  -4.000000E+01  -4.000000E+01  -4.000000E+01  -4.000000E+01  -4.000000E+01  -4.000000E+01  -4.000000E+01  -4.000000E+01  -4.000000E+01  -4.000000E+01  -4.000000E+01  -4.000000E+01  -4.000000E+01  -4.000000E+01  -4.000000E+01  -4.000000E+01  -4.000000E+01  -4.000000E+01  -4.000000E+01  -4.000000E+01  -4.000000E+01  -4.000000E+01  -4.000000E+01  -4.000000E+01  -4.000000E+01  -4.000000E+01  -4.000000E+01  -4.000000E+01  -4.000000E+01
# Dataset 6
CONSTANT    2.000000E-01                           #ssz Layer 1                   
# Dataset 7
INTERNAL               1   (60I10)  -1 #isource Layer 1               
         2         1         1         1         1         1         1         1         1         1         1         1         1         1         1         1         1         1         1         1         1         1         1         1         1         1         1         1         1         1         1         1         1         1         1         1         1         1         1         1         1         1         1         1         1         1         1         1         1         1         1         1         1         1         1         1         1         1         1         1
