# Output control package file for MODFLOW, generated by Flopy.
# Deprecated flopy OC class
  0  0   51   52
  0  1  0  1  Period   1, step   1
  0  0  0  0
  0  1  0  1  Period   1, step   2
  0  0  0  0
  0  1  0  1  Period   1, step   3
  0  0  0  0
  0  1  0  1  Period   1, step   4
  0  0  0  0
  0  1  0  1  Period   1, step   5
  0  0  0  0
  0  1  0  1  Period   1, step   6
  0  0  0  0
  0  1  0  1  Period   1, step   7
  0  0  0  0
  0  1  0  1  Period   1, step   8
  0  0  0  0
  0  1  0  1  Period   1, step   9
  0  0  0  0
  0  1  0  1  Period   1, step  10
  0  0  0  0
  0  1  0  1  Period   1, step  11
  0  0  0  0
  0  1  0  1  Period   1, step  12
  0  0  0  0
  0  1  0  1  Period   1, step  13
  0  0  0  0
  0  1  0  1  Period   1, step  14
  0  0  0  0
  0  1  0  1  Period   1, step  15
  0  0  0  0
  0  1  0  1  Period   1, step  16
  0  0  0  0
  0  1  0  1  Period   1, step  17
  0  0  0  0
  0  1  0  1  Period   1, step  18
  0  0  0  0
  0  1  0  1  Period   1, step  19
  0  0  0  0
  0  1  0  1  Period   1, step  20
  0  0  0  0
  0  1  0  1  Period   1, step  21
  0  0  0  0
  0  1  0  1  Period   1, step  22
  0  0  0  0
  0  1  0  1  Period   1, step  23
  0  0  0  0
  0  1  0  1  Period   1, step  24
  0  0  0  0
  0  1  0  1  Period   1, step  25
  0  0  0  0
  0  1  0  1  Period   1, step  26
  0  0  0  0
  0  1  0  1  Period   1, step  27
  0  0  0  0
  0  1  0  1  Period   1, step  28
  0  0  0  0
  0  1  0  1  Period   1, step  29
  0  0  0  0
  0  1  0  1  Period   1, step  30
  0  0  0  0
  0  1  0  1  Period   1, step  31
  0  0  0  0
  0  1  0  1  Period   1, step  32
  0  0  0  0
  0  1  0  1  Period   1, step  33
  0  0  0  0
  0  1  0  1  Period   1, step  34
  0  0  0  0
  0  1  0  1  Period   1, step  35
  0  0  0  0
  0  1  0  1  Period   1, step  36
  0  0  0  0
  0  1  0  1  Period   1, step  37
  0  0  0  0
  0  1  0  1  Period   1, step  38
  0  0  0  0
  0  1  0  1  Period   1, step  39
  0  0  0  0
  0  1  0  1  Period   1, step  40
  0  0  0  0
  0  1  0  1  Period   1, step  41
  0  0  0  0
  0  1  0  1  Period   1, step  42
  0  0  0  0
  0  1  0  1  Period   1, step  43
  0  0  0  0
  0  1  0  1  Period   1, step  44
  0  0  0  0
  0  1  0  1  Period   1, step  45
  0  0  0  0
  0  1  0  1  Period   1, step  46
  0  0  0  0
  0  1  0  1  Period   1, step  47
  0  0  0  0
  0  1  0  1  Period   1, step  48
  0  0  0  0
  0  1  0  1  Period   1, step  49
  0  0  0  0
  0  1  0  1  Period   1, step  50
  0  0  0  0
  0  1  0  1  Period   1, step  51
  0  0  0  0
  0  1  0  1  Period   1, step  52
  0  0  0  0
  0  1  0  1  Period   1, step  53
  0  0  0  0
  0  1  0  1  Period   1, step  54
  0  0  0  0
  0  1  0  1  Period   1, step  55
  0  0  0  0
  0  1  0  1  Period   1, step  56
  0  0  0  0
  0  1  0  1  Period   1, step  57
  0  0  0  0
  0  1  0  1  Period   1, step  58
  0  0  0  0
  0  1  0  1  Period   1, step  59
  0  0  0  0
  0  1  0  1  Period   1, step  60
  0  0  0  0
  0  1  0  1  Period   1, step  61
  0  0  0  0
  0  1  0  1  Period   1, step  62
  0  0  0  0
  0  1  0  1  Period   1, step  63
  0  0  0  0
  0  1  0  1  Period   1, step  64
  0  0  0  0
  0  1  0  1  Period   1, step  65
  0  0  0  0
  0  1  0  1  Period   1, step  66
  0  0  0  0
  0  1  0  1  Period   1, step  67
  0  0  0  0
  0  1  0  1  Period   1, step  68
  0  0  0  0
  0  1  0  1  Period   1, step  69
  0  0  0  0
  0  1  0  1  Period   1, step  70
  0  0  0  0
  0  1  0  1  Period   1, step  71
  0  0  0  0
  0  1  0  1  Period   1, step  72
  0  0  0  0
  0  1  0  1  Period   1, step  73
  0  0  0  0
  0  1  0  1  Period   1, step  74
  0  0  0  0
  0  1  0  1  Period   1, step  75
  0  0  0  0
  0  1  0  1  Period   1, step  76
  0  0  0  0
  0  1  0  1  Period   1, step  77
  0  0  0  0
  0  1  0  1  Period   1, step  78
  0  0  0  0
  0  1  0  1  Period   1, step  79
  0  0  0  0
  0  1  0  1  Period   1, step  80
  0  0  0  0
  0  1  0  1  Period   1, step  81
  0  0  0  0
  0  1  0  1  Period   1, step  82
  0  0  0  0
  0  1  0  1  Period   1, step  83
  0  0  0  0
  0  1  0  1  Period   1, step  84
  0  0  0  0
  0  1  0  1  Period   1, step  85
  0  0  0  0
  0  1  0  1  Period   1, step  86
  0  0  0  0
  0  1  0  1  Period   1, step  87
  0  0  0  0
  0  1  0  1  Period   1, step  88
  0  0  0  0
  0  1  0  1  Period   1, step  89
  0  0  0  0
  0  1  0  1  Period   1, step  90
  0  0  0  0
  0  1  0  1  Period   1, step  91
  0  0  0  0
  0  1  0  1  Period   1, step  92
  0  0  0  0
  0  1  0  1  Period   1, step  93
  0  0  0  0
  0  1  0  1  Period   1, step  94
  0  0  0  0
  0  1  0  1  Period   1, step  95
  0  0  0  0
  0  1  0  1  Period   1, step  96
  0  0  0  0
  0  1  0  1  Period   1, step  97
  0  0  0  0
  0  1  0  1  Period   1, step  98
  0  0  0  0
  0  1  0  1  Period   1, step  99
  0  0  0  0
  0  1  0  1  Period   1, step 100
  0  0  0  0
  0  1  0  1  Period   1, step 101
  0  0  0  0
  0  1  0  1  Period   1, step 102
  0  0  0  0
  0  1  0  1  Period   1, step 103
  0  0  0  0
  0  1  0  1  Period   1, step 104
  0  0  0  0
  0  1  0  1  Period   1, step 105
  0  0  0  0
  0  1  0  1  Period   1, step 106
  0  0  0  0
  0  1  0  1  Period   1, step 107
  0  0  0  0
  0  1  0  1  Period   1, step 108
  0  0  0  0
  0  1  0  1  Period   1, step 109
  0  0  0  0
  0  1  0  1  Period   1, step 110
  0  0  0  0
  0  1  0  1  Period   1, step 111
  0  0  0  0
  0  1  0  1  Period   1, step 112
  0  0  0  0
  0  1  0  1  Period   1, step 113
  0  0  0  0
  0  1  0  1  Period   1, step 114
  0  0  0  0
  0  1  0  1  Period   1, step 115
  0  0  0  0
  0  1  0  1  Period   1, step 116
  0  0  0  0
  0  1  0  1  Period   1, step 117
  0  0  0  0
  0  1  0  1  Period   1, step 118
  0  0  0  0
  0  1  0  1  Period   1, step 119
  0  0  0  0
  0  1  0  1  Period   1, step 120
  0  0  0  0
  0  1  0  1  Period   1, step 121
  0  0  0  0
  0  1  0  1  Period   1, step 122
  0  0  0  0
  0  1  0  1  Period   1, step 123
  0  0  0  0
  0  1  0  1  Period   1, step 124
  0  0  0  0
  0  1  0  1  Period   1, step 125
  0  0  0  0
  0  1  0  1  Period   1, step 126
  0  0  0  0
  0  1  0  1  Period   1, step 127
  0  0  0  0
  0  1  0  1  Period   1, step 128
  0  0  0  0
  0  1  0  1  Period   1, step 129
  0  0  0  0
  0  1  0  1  Period   1, step 130
  0  0  0  0
  0  1  0  1  Period   1, step 131
  0  0  0  0
  0  1  0  1  Period   1, step 132
  0  0  0  0
  0  1  0  1  Period   1, step 133
  0  0  0  0
  0  1  0  1  Period   1, step 134
  0  0  0  0
  0  1  0  1  Period   1, step 135
  0  0  0  0
  0  1  0  1  Period   1, step 136
  0  0  0  0
  0  1  0  1  Period   1, step 137
  0  0  0  0
  0  1  0  1  Period   1, step 138
  0  0  0  0
  0  1  0  1  Period   1, step 139
  0  0  0  0
  0  1  0  1  Period   1, step 140
  0  0  0  0
  0  1  0  1  Period   1, step 141
  0  0  0  0
  0  1  0  1  Period   1, step 142
  0  0  0  0
  0  1  0  1  Period   1, step 143
  0  0  0  0
  0  1  0  1  Period   1, step 144
  0  0  0  0
  0  1  0  1  Period   1, step 145
  0  0  0  0
  0  1  0  1  Period   1, step 146
  0  0  0  0
  0  1  0  1  Period   1, step 147
  0  0  0  0
  0  1  0  1  Period   1, step 148
  0  0  0  0
  0  1  0  1  Period   1, step 149
  0  0  0  0
  0  1  0  1  Period   1, step 150
  0  0  0  0
  0  1  0  1  Period   1, step 151
  0  0  0  0
  0  1  0  1  Period   1, step 152
  0  0  0  0
  0  1  0  1  Period   1, step 153
  0  0  0  0
  0  1  0  1  Period   1, step 154
  0  0  0  0
  0  1  0  1  Period   1, step 155
  0  0  0  0
  0  1  0  1  Period   1, step 156
  0  0  0  0
  0  1  0  1  Period   1, step 157
  0  0  0  0
  0  1  0  1  Period   1, step 158
  0  0  0  0
  0  1  0  1  Period   1, step 159
  0  0  0  0
  0  1  0  1  Period   1, step 160
  0  0  0  0
  0  1  0  1  Period   1, step 161
  0  0  0  0
  0  1  0  1  Period   1, step 162
  0  0  0  0
  0  1  0  1  Period   1, step 163
  0  0  0  0
  0  1  0  1  Period   1, step 164
  0  0  0  0
  0  1  0  1  Period   1, step 165
  0  0  0  0
  0  1  0  1  Period   1, step 166
  0  0  0  0
  0  1  0  1  Period   1, step 167
  0  0  0  0
  0  1  0  1  Period   1, step 168
  0  0  0  0
  0  1  0  1  Period   1, step 169
  0  0  0  0
  0  1  0  1  Period   1, step 170
  0  0  0  0
  0  1  0  1  Period   1, step 171
  0  0  0  0
  0  1  0  1  Period   1, step 172
  0  0  0  0
  0  1  0  1  Period   1, step 173
  0  0  0  0
  0  1  0  1  Period   1, step 174
  0  0  0  0
  0  1  0  1  Period   1, step 175
  0  0  0  0
  0  1  0  1  Period   1, step 176
  0  0  0  0
  0  1  0  1  Period   1, step 177
  0  0  0  0
  0  1  0  1  Period   1, step 178
  0  0  0  0
  0  1  0  1  Period   1, step 179
  0  0  0  0
  0  1  0  1  Period   1, step 180
  0  0  0  0
  0  1  0  1  Period   1, step 181
  0  0  0  0
  0  1  0  1  Period   1, step 182
  0  0  0  0
  0  1  0  1  Period   1, step 183
  0  0  0  0
  0  1  0  1  Period   1, step 184
  0  0  0  0
  0  1  0  1  Period   1, step 185
  0  0  0  0
  0  1  0  1  Period   1, step 186
  0  0  0  0
  0  1  0  1  Period   1, step 187
  0  0  0  0
  0  1  0  1  Period   1, step 188
  0  0  0  0
  0  1  0  1  Period   1, step 189
  0  0  0  0
  0  1  0  1  Period   1, step 190
  0  0  0  0
  0  1  0  1  Period   1, step 191
  0  0  0  0
  0  1  0  1  Period   1, step 192
  0  0  0  0
  0  1  0  1  Period   1, step 193
  0  0  0  0
  0  1  0  1  Period   1, step 194
  0  0  0  0
  0  1  0  1  Period   1, step 195
  0  0  0  0
  0  1  0  1  Period   1, step 196
  0  0  0  0
  0  1  0  1  Period   1, step 197
  0  0  0  0
  0  1  0  1  Period   1, step 198
  0  0  0  0
  0  1  0  1  Period   1, step 199
  0  0  0  0
  0  1  0  1  Period   1, step 200
  0  0  0  0
  0  1  0  1  Period   1, step 201
  0  0  0  0
  0  1  0  1  Period   1, step 202
  0  0  0  0
  0  1  0  1  Period   1, step 203
  0  0  0  0
  0  1  0  1  Period   1, step 204
  0  0  0  0
  0  1  0  1  Period   1, step 205
  0  0  0  0
  0  1  0  1  Period   1, step 206
  0  0  0  0
  0  1  0  1  Period   1, step 207
  0  0  0  0
  0  1  0  1  Period   1, step 208
  0  0  0  0
  0  1  0  1  Period   1, step 209
  0  0  0  0
  0  1  0  1  Period   1, step 210
  0  0  0  0
  0  1  0  1  Period   1, step 211
  0  0  0  0
  0  1  0  1  Period   1, step 212
  0  0  0  0
  0  1  0  1  Period   1, step 213
  0  0  0  0
  0  1  0  1  Period   1, step 214
  0  0  0  0
  0  1  0  1  Period   1, step 215
  0  0  0  0
  0  1  0  1  Period   1, step 216
  0  0  0  0
  0  1  0  1  Period   1, step 217
  0  0  0  0
  0  1  0  1  Period   1, step 218
  0  0  0  0
  0  1  0  1  Period   1, step 219
  0  0  0  0
  0  1  0  1  Period   1, step 220
  0  0  0  0
  0  1  0  1  Period   1, step 221
  0  0  0  0
  0  1  0  1  Period   1, step 222
  0  0  0  0
  0  1  0  1  Period   1, step 223
  0  0  0  0
  0  1  0  1  Period   1, step 224
  0  0  0  0
  0  1  0  1  Period   1, step 225
  0  0  0  0
  0  1  0  1  Period   1, step 226
  0  0  0  0
  0  1  0  1  Period   1, step 227
  0  0  0  0
  0  1  0  1  Period   1, step 228
  0  0  0  0
  0  1  0  1  Period   1, step 229
  0  0  0  0
  0  1  0  1  Period   1, step 230
  0  0  0  0
  0  1  0  1  Period   1, step 231
  0  0  0  0
  0  1  0  1  Period   1, step 232
  0  0  0  0
  0  1  0  1  Period   1, step 233
  0  0  0  0
  0  1  0  1  Period   1, step 234
  0  0  0  0
  0  1  0  1  Period   1, step 235
  0  0  0  0
  0  1  0  1  Period   1, step 236
  0  0  0  0
  0  1  0  1  Period   1, step 237
  0  0  0  0
  0  1  0  1  Period   1, step 238
  0  0  0  0
  0  1  0  1  Period   1, step 239
  0  0  0  0
  0  1  0  1  Period   1, step 240
  0  0  0  0
  0  1  0  1  Period   1, step 241
  0  0  0  0
  0  1  0  1  Period   1, step 242
  0  0  0  0
  0  1  0  1  Period   1, step 243
  0  0  0  0
  0  1  0  1  Period   1, step 244
  0  0  0  0
  0  1  0  1  Period   1, step 245
  0  0  0  0
  0  1  0  1  Period   1, step 246
  0  0  0  0
  0  1  0  1  Period   1, step 247
  0  0  0  0
  0  1  0  1  Period   1, step 248
  0  0  0  0
  0  1  0  1  Period   1, step 249
  0  0  0  0
  0  1  0  1  Period   1, step 250
  0  0  0  0
  0  1  0  1  Period   1, step 251
  0  0  0  0
  0  1  0  1  Period   1, step 252
  0  0  0  0
  0  1  0  1  Period   1, step 253
  0  0  0  0
  0  1  0  1  Period   1, step 254
  0  0  0  0
  0  1  0  1  Period   1, step 255
  0  0  0  0
  0  1  0  1  Period   1, step 256
  0  0  0  0
  0  1  0  1  Period   1, step 257
  0  0  0  0
  0  1  0  1  Period   1, step 258
  0  0  0  0
  0  1  0  1  Period   1, step 259
  0  0  0  0
  0  1  0  1  Period   1, step 260
  0  0  0  0
  0  1  0  1  Period   1, step 261
  0  0  0  0
  0  1  0  1  Period   1, step 262
  0  0  0  0
  0  1  0  1  Period   1, step 263
  0  0  0  0
  0  1  0  1  Period   1, step 264
  0  0  0  0
  0  1  0  1  Period   1, step 265
  0  0  0  0
  0  1  0  1  Period   1, step 266
  0  0  0  0
  0  1  0  1  Period   1, step 267
  0  0  0  0
  0  1  0  1  Period   1, step 268
  0  0  0  0
  0  1  0  1  Period   1, step 269
  0  0  0  0
  0  1  0  1  Period   1, step 270
  0  0  0  0
  0  1  0  1  Period   1, step 271
  0  0  0  0
  0  1  0  1  Period   1, step 272
  0  0  0  0
  0  1  0  1  Period   1, step 273
  0  0  0  0
  0  1  0  1  Period   1, step 274
  0  0  0  0
  0  1  0  1  Period   1, step 275
  0  0  0  0
  0  1  0  1  Period   1, step 276
  0  0  0  0
  0  1  0  1  Period   1, step 277
  0  0  0  0
  0  1  0  1  Period   1, step 278
  0  0  0  0
  0  1  0  1  Period   1, step 279
  0  0  0  0
  0  1  0  1  Period   1, step 280
  0  0  0  0
  0  1  0  1  Period   1, step 281
  0  0  0  0
  0  1  0  1  Period   1, step 282
  0  0  0  0
  0  1  0  1  Period   1, step 283
  0  0  0  0
  0  1  0  1  Period   1, step 284
  0  0  0  0
  0  1  0  1  Period   1, step 285
  0  0  0  0
  0  1  0  1  Period   1, step 286
  0  0  0  0
  0  1  0  1  Period   1, step 287
  0  0  0  0
  0  1  0  1  Period   1, step 288
  0  0  0  0
  0  1  0  1  Period   1, step 289
  0  0  0  0
  0  1  0  1  Period   1, step 290
  0  0  0  0
  0  1  0  1  Period   1, step 291
  0  0  0  0
  0  1  0  1  Period   1, step 292
  0  0  0  0
  0  1  0  1  Period   1, step 293
  0  0  0  0
  0  1  0  1  Period   1, step 294
  0  0  0  0
  0  1  0  1  Period   1, step 295
  0  0  0  0
  0  1  0  1  Period   1, step 296
  0  0  0  0
  0  1  0  1  Period   1, step 297
  0  0  0  0
  0  1  0  1  Period   1, step 298
  0  0  0  0
  0  1  0  1  Period   1, step 299
  0  0  0  0
  0  1  0  1  Period   1, step 300
  0  0  0  0
  0  1  0  1  Period   1, step 301
  0  0  0  0
  0  1  0  1  Period   1, step 302
  0  0  0  0
  0  1  0  1  Period   1, step 303
  0  0  0  0
  0  1  0  1  Period   1, step 304
  0  0  0  0
  0  1  0  1  Period   1, step 305
  0  0  0  0
  0  1  0  1  Period   1, step 306
  0  0  0  0
  0  1  0  1  Period   1, step 307
  0  0  0  0
  0  1  0  1  Period   1, step 308
  0  0  0  0
  0  1  0  1  Period   1, step 309
  0  0  0  0
  0  1  0  1  Period   1, step 310
  0  0  0  0
  0  1  0  1  Period   1, step 311
  0  0  0  0
  0  1  0  1  Period   1, step 312
  0  0  0  0
  0  1  0  1  Period   1, step 313
  0  0  0  0
  0  1  0  1  Period   1, step 314
  0  0  0  0
  0  1  0  1  Period   1, step 315
  0  0  0  0
  0  1  0  1  Period   1, step 316
  0  0  0  0
  0  1  0  1  Period   1, step 317
  0  0  0  0
  0  1  0  1  Period   1, step 318
  0  0  0  0
  0  1  0  1  Period   1, step 319
  0  0  0  0
  0  1  0  1  Period   1, step 320
  0  0  0  0
  0  1  0  1  Period   1, step 321
  0  0  0  0
  0  1  0  1  Period   1, step 322
  0  0  0  0
  0  1  0  1  Period   1, step 323
  0  0  0  0
  0  1  0  1  Period   1, step 324
  0  0  0  0
  0  1  0  1  Period   1, step 325
  0  0  0  0
  0  1  0  1  Period   1, step 326
  0  0  0  0
  0  1  0  1  Period   1, step 327
  0  0  0  0
  0  1  0  1  Period   1, step 328
  0  0  0  0
  0  1  0  1  Period   1, step 329
  0  0  0  0
  0  1  0  1  Period   1, step 330
  0  0  0  0
  0  1  0  1  Period   1, step 331
  0  0  0  0
  0  1  0  1  Period   1, step 332
  0  0  0  0
  0  1  0  1  Period   1, step 333
  0  0  0  0
  0  1  0  1  Period   1, step 334
  0  0  0  0
  0  1  0  1  Period   1, step 335
  0  0  0  0
  0  1  0  1  Period   1, step 336
  0  0  0  0
  0  1  0  1  Period   1, step 337
  0  0  0  0
  0  1  0  1  Period   1, step 338
  0  0  0  0
  0  1  0  1  Period   1, step 339
  0  0  0  0
  0  1  0  1  Period   1, step 340
  0  0  0  0
  0  1  0  1  Period   1, step 341
  0  0  0  0
  0  1  0  1  Period   1, step 342
  0  0  0  0
  0  1  0  1  Period   1, step 343
  0  0  0  0
  0  1  0  1  Period   1, step 344
  0  0  0  0
  0  1  0  1  Period   1, step 345
  0  0  0  0
  0  1  0  1  Period   1, step 346
  0  0  0  0
  0  1  0  1  Period   1, step 347
  0  0  0  0
  0  1  0  1  Period   1, step 348
  0  0  0  0
  0  1  0  1  Period   1, step 349
  0  0  0  0
  0  1  0  1  Period   1, step 350
  0  0  0  0
  0  1  0  1  Period   1, step 351
  0  0  0  0
  0  1  0  1  Period   1, step 352
  0  0  0  0
  0  1  0  1  Period   1, step 353
  0  0  0  0
  0  1  0  1  Period   1, step 354
  0  0  0  0
  0  1  0  1  Period   1, step 355
  0  0  0  0
  0  1  0  1  Period   1, step 356
  0  0  0  0
  0  1  0  1  Period   1, step 357
  0  0  0  0
  0  1  0  1  Period   1, step 358
  0  0  0  0
  0  1  0  1  Period   1, step 359
  0  0  0  0
  0  1  0  1  Period   1, step 360
  0  0  0  0
  0  1  0  1  Period   1, step 361
  0  0  0  0
  0  1  0  1  Period   1, step 362
  0  0  0  0
  0  1  0  1  Period   1, step 363
  0  0  0  0
  0  1  0  1  Period   1, step 364
  0  0  0  0
  0  1  0  1  Period   1, step 365
  0  0  0  0
  0  1  0  1  Period   1, step 366
  0  0  0  0
  0  1  0  1  Period   1, step 367
  0  0  0  0
  0  1  0  1  Period   1, step 368
  0  0  0  0
  0  1  0  1  Period   1, step 369
  0  0  0  0
  0  1  0  1  Period   1, step 370
  0  0  0  0
  0  1  0  1  Period   1, step 371
  0  0  0  0
  0  1  0  1  Period   1, step 372
  0  0  0  0
  0  1  0  1  Period   1, step 373
  0  0  0  0
  0  1  0  1  Period   1, step 374
  0  0  0  0
  0  1  0  1  Period   1, step 375
  0  0  0  0
  0  1  0  1  Period   1, step 376
  0  0  0  0
  0  1  0  1  Period   1, step 377
  0  0  0  0
  0  1  0  1  Period   1, step 378
  0  0  0  0
  0  1  0  1  Period   1, step 379
  0  0  0  0
  0  1  0  1  Period   1, step 380
  0  0  0  0
  0  1  0  1  Period   1, step 381
  0  0  0  0
  0  1  0  1  Period   1, step 382
  0  0  0  0
  0  1  0  1  Period   1, step 383
  0  0  0  0
  0  1  0  1  Period   1, step 384
  0  0  0  0
  0  1  0  1  Period   1, step 385
  0  0  0  0
  0  1  0  1  Period   1, step 386
  0  0  0  0
  0  1  0  1  Period   1, step 387
  0  0  0  0
  0  1  0  1  Period   1, step 388
  0  0  0  0
  0  1  0  1  Period   1, step 389
  0  0  0  0
  0  1  0  1  Period   1, step 390
  0  0  0  0
  0  1  0  1  Period   1, step 391
  0  0  0  0
  0  1  0  1  Period   1, step 392
  0  0  0  0
  0  1  0  1  Period   1, step 393
  0  0  0  0
  0  1  0  1  Period   1, step 394
  0  0  0  0
  0  1  0  1  Period   1, step 395
  0  0  0  0
  0  1  0  1  Period   1, step 396
  0  0  0  0
  0  1  0  1  Period   1, step 397
  0  0  0  0
  0  1  0  1  Period   1, step 398
  0  0  0  0
  0  1  0  1  Period   1, step 399
  0  0  0  0
  0  1  0  1  Period   1, step 400
  0  0  0  0
  0  1  0  1  Period   1, step 401
  0  0  0  0
  0  1  0  1  Period   1, step 402
  0  0  0  0
  0  1  0  1  Period   1, step 403
  0  0  0  0
  0  1  0  1  Period   1, step 404
  0  0  0  0
  0  1  0  1  Period   1, step 405
  0  0  0  0
  0  1  0  1  Period   1, step 406
  0  0  0  0
  0  1  0  1  Period   1, step 407
  0  0  0  0
  0  1  0  1  Period   1, step 408
  0  0  0  0
  0  1  0  1  Period   1, step 409
  0  0  0  0
  0  1  0  1  Period   1, step 410
  0  0  0  0
  0  1  0  1  Period   1, step 411
  0  0  0  0
  0  1  0  1  Period   1, step 412
  0  0  0  0
  0  1  0  1  Period   1, step 413
  0  0  0  0
  0  1  0  1  Period   1, step 414
  0  0  0  0
  0  1  0  1  Period   1, step 415
  0  0  0  0
  0  1  0  1  Period   1, step 416
  0  0  0  0
  0  1  0  1  Period   1, step 417
  0  0  0  0
  0  1  0  1  Period   1, step 418
  0  0  0  0
  0  1  0  1  Period   1, step 419
  0  0  0  0
  0  1  0  1  Period   1, step 420
  0  0  0  0
  0  1  0  1  Period   1, step 421
  0  0  0  0
  0  1  0  1  Period   1, step 422
  0  0  0  0
  0  1  0  1  Period   1, step 423
  0  0  0  0
  0  1  0  1  Period   1, step 424
  0  0  0  0
  0  1  0  1  Period   1, step 425
  0  0  0  0
  0  1  0  1  Period   1, step 426
  0  0  0  0
  0  1  0  1  Period   1, step 427
  0  0  0  0
  0  1  0  1  Period   1, step 428
  0  0  0  0
  0  1  0  1  Period   1, step 429
  0  0  0  0
  0  1  0  1  Period   1, step 430
  0  0  0  0
  0  1  0  1  Period   1, step 431
  0  0  0  0
  0  1  0  1  Period   1, step 432
  0  0  0  0
  0  1  0  1  Period   1, step 433
  0  0  0  0
  0  1  0  1  Period   1, step 434
  0  0  0  0
  0  1  0  1  Period   1, step 435
  0  0  0  0
  0  1  0  1  Period   1, step 436
  0  0  0  0
  0  1  0  1  Period   1, step 437
  0  0  0  0
  0  1  0  1  Period   1, step 438
  0  0  0  0
  0  1  0  1  Period   1, step 439
  0  0  0  0
  0  1  0  1  Period   1, step 440
  0  0  0  0
  0  1  0  1  Period   1, step 441
  0  0  0  0
  0  1  0  1  Period   1, step 442
  0  0  0  0
  0  1  0  1  Period   1, step 443
  0  0  0  0
  0  1  0  1  Period   1, step 444
  0  0  0  0
  0  1  0  1  Period   1, step 445
  0  0  0  0
  0  1  0  1  Period   1, step 446
  0  0  0  0
  0  1  0  1  Period   1, step 447
  0  0  0  0
  0  1  0  1  Period   1, step 448
  0  0  0  0
  0  1  0  1  Period   1, step 449
  0  0  0  0
  0  1  0  1  Period   1, step 450
  0  0  0  0
  0  1  0  1  Period   1, step 451
  0  0  0  0
  0  1  0  1  Period   1, step 452
  0  0  0  0
  0  1  0  1  Period   1, step 453
  0  0  0  0
  0  1  0  1  Period   1, step 454
  0  0  0  0
  0  1  0  1  Period   1, step 455
  0  0  0  0
  0  1  0  1  Period   1, step 456
  0  0  0  0
  0  1  0  1  Period   1, step 457
  0  0  0  0
  0  1  0  1  Period   1, step 458
  0  0  0  0
  0  1  0  1  Period   1, step 459
  0  0  0  0
  0  1  0  1  Period   1, step 460
  0  0  0  0
  0  1  0  1  Period   1, step 461
  0  0  0  0
  0  1  0  1  Period   1, step 462
  0  0  0  0
  0  1  0  1  Period   1, step 463
  0  0  0  0
  0  1  0  1  Period   1, step 464
  0  0  0  0
  0  1  0  1  Period   1, step 465
  0  0  0  0
  0  1  0  1  Period   1, step 466
  0  0  0  0
  0  1  0  1  Period   1, step 467
  0  0  0  0
  0  1  0  1  Period   1, step 468
  0  0  0  0
  0  1  0  1  Period   1, step 469
  0  0  0  0
  0  1  0  1  Period   1, step 470
  0  0  0  0
  0  1  0  1  Period   1, step 471
  0  0  0  0
  0  1  0  1  Period   1, step 472
  0  0  0  0
  0  1  0  1  Period   1, step 473
  0  0  0  0
  0  1  0  1  Period   1, step 474
  0  0  0  0
  0  1  0  1  Period   1, step 475
  0  0  0  0
  0  1  0  1  Period   1, step 476
  0  0  0  0
  0  1  0  1  Period   1, step 477
  0  0  0  0
  0  1  0  1  Period   1, step 478
  0  0  0  0
  0  1  0  1  Period   1, step 479
  0  0  0  0
  0  1  0  1  Period   1, step 480
  0  0  0  0
  0  1  0  1  Period   1, step 481
  0  0  0  0
  0  1  0  1  Period   1, step 482
  0  0  0  0
  0  1  0  1  Period   1, step 483
  0  0  0  0
  0  1  0  1  Period   1, step 484
  0  0  0  0
  0  1  0  1  Period   1, step 485
  0  0  0  0
  0  1  0  1  Period   1, step 486
  0  0  0  0
  0  1  0  1  Period   1, step 487
  0  0  0  0
  0  1  0  1  Period   1, step 488
  0  0  0  0
  0  1  0  1  Period   1, step 489
  0  0  0  0
  0  1  0  1  Period   1, step 490
  0  0  0  0
  0  1  0  1  Period   1, step 491
  0  0  0  0
  0  1  0  1  Period   1, step 492
  0  0  0  0
  0  1  0  1  Period   1, step 493
  0  0  0  0
  0  1  0  1  Period   1, step 494
  0  0  0  0
  0  1  0  1  Period   1, step 495
  0  0  0  0
  0  1  0  1  Period   1, step 496
  0  0  0  0
  0  1  0  1  Period   1, step 497
  0  0  0  0
  0  1  0  1  Period   1, step 498
  0  0  0  0
  0  1  0  1  Period   1, step 499
  0  0  0  0
  0  1  0  1  Period   1, step 500
  0  0  0  0
  0  1  0  1  Period   1, step 501
  0  0  0  0
  0  1  0  1  Period   1, step 502
  0  0  0  0
  0  1  0  1  Period   1, step 503
  0  0  0  0
  0  1  0  1  Period   1, step 504
  0  0  0  0
  0  1  0  1  Period   1, step 505
  0  0  0  0
  0  1  0  1  Period   1, step 506
  0  0  0  0
  0  1  0  1  Period   1, step 507
  0  0  0  0
  0  1  0  1  Period   1, step 508
  0  0  0  0
  0  1  0  1  Period   1, step 509
  0  0  0  0
  0  1  0  1  Period   1, step 510
  0  0  0  0
  0  1  0  1  Period   1, step 511
  0  0  0  0
  0  1  0  1  Period   1, step 512
  0  0  0  0
  0  1  0  1  Period   1, step 513
  0  0  0  0
  0  1  0  1  Period   1, step 514
  0  0  0  0
  0  1  0  1  Period   1, step 515
  0  0  0  0
  0  1  0  1  Period   1, step 516
  0  0  0  0
  0  1  0  1  Period   1, step 517
  0  0  0  0
  0  1  0  1  Period   1, step 518
  0  0  0  0
  0  1  0  1  Period   1, step 519
  0  0  0  0
  0  1  0  1  Period   1, step 520
  0  0  0  0
  0  1  0  1  Period   1, step 521
  0  0  0  0
  0  1  0  1  Period   1, step 522
  0  0  0  0
  0  1  0  1  Period   1, step 523
  0  0  0  0
  0  1  0  1  Period   1, step 524
  0  0  0  0
  0  1  0  1  Period   1, step 525
  0  0  0  0
  0  1  0  1  Period   1, step 526
  0  0  0  0
  0  1  0  1  Period   1, step 527
  0  0  0  0
  0  1  0  1  Period   1, step 528
  0  0  0  0
  0  1  0  1  Period   1, step 529
  0  0  0  0
  0  1  0  1  Period   1, step 530
  0  0  0  0
  0  1  0  1  Period   1, step 531
  0  0  0  0
  0  1  0  1  Period   1, step 532
  0  0  0  0
  0  1  0  1  Period   1, step 533
  0  0  0  0
  0  1  0  1  Period   1, step 534
  0  0  0  0
  0  1  0  1  Period   1, step 535
  0  0  0  0
  0  1  0  1  Period   1, step 536
  0  0  0  0
  0  1  0  1  Period   1, step 537
  0  0  0  0
  0  1  0  1  Period   1, step 538
  0  0  0  0
  0  1  0  1  Period   1, step 539
  0  0  0  0
  0  1  0  1  Period   1, step 540
  0  0  0  0
  0  1  0  1  Period   1, step 541
  0  0  0  0
  0  1  0  1  Period   1, step 542
  0  0  0  0
  0  1  0  1  Period   1, step 543
  0  0  0  0
  0  1  0  1  Period   1, step 544
  0  0  0  0
  0  1  0  1  Period   1, step 545
  0  0  0  0
  0  1  0  1  Period   1, step 546
  0  0  0  0
  0  1  0  1  Period   1, step 547
  0  0  0  0
  0  1  0  1  Period   1, step 548
  0  0  0  0
  0  1  0  1  Period   1, step 549
  0  0  0  0
  0  1  0  1  Period   1, step 550
  0  0  0  0
  0  1  0  1  Period   1, step 551
  0  0  0  0
  0  1  0  1  Period   1, step 552
  0  0  0  0
  0  1  0  1  Period   1, step 553
  0  0  0  0
  0  1  0  1  Period   1, step 554
  0  0  0  0
  0  1  0  1  Period   1, step 555
  0  0  0  0
  0  1  0  1  Period   1, step 556
  0  0  0  0
  0  1  0  1  Period   1, step 557
  0  0  0  0
  0  1  0  1  Period   1, step 558
  0  0  0  0
  0  1  0  1  Period   1, step 559
  0  0  0  0
  0  1  0  1  Period   1, step 560
  0  0  0  0
  0  1  0  1  Period   1, step 561
  0  0  0  0
  0  1  0  1  Period   1, step 562
  0  0  0  0
  0  1  0  1  Period   1, step 563
  0  0  0  0
  0  1  0  1  Period   1, step 564
  0  0  0  0
  0  1  0  1  Period   1, step 565
  0  0  0  0
  0  1  0  1  Period   1, step 566
  0  0  0  0
  0  1  0  1  Period   1, step 567
  0  0  0  0
  0  1  0  1  Period   1, step 568
  0  0  0  0
  0  1  0  1  Period   1, step 569
  0  0  0  0
  0  1  0  1  Period   1, step 570
  0  0  0  0
  0  1  0  1  Period   1, step 571
  0  0  0  0
  0  1  0  1  Period   1, step 572
  0  0  0  0
  0  1  0  1  Period   1, step 573
  0  0  0  0
  0  1  0  1  Period   1, step 574
  0  0  0  0
  0  1  0  1  Period   1, step 575
  0  0  0  0
  0  1  0  1  Period   1, step 576
  0  0  0  0
  0  1  0  1  Period   1, step 577
  0  0  0  0
  0  1  0  1  Period   1, step 578
  0  0  0  0
  0  1  0  1  Period   1, step 579
  0  0  0  0
  0  1  0  1  Period   1, step 580
  0  0  0  0
  0  1  0  1  Period   1, step 581
  0  0  0  0
  0  1  0  1  Period   1, step 582
  0  0  0  0
  0  1  0  1  Period   1, step 583
  0  0  0  0
  0  1  0  1  Period   1, step 584
  0  0  0  0
  0  1  0  1  Period   1, step 585
  0  0  0  0
  0  1  0  1  Period   1, step 586
  0  0  0  0
  0  1  0  1  Period   1, step 587
  0  0  0  0
  0  1  0  1  Period   1, step 588
  0  0  0  0
  0  1  0  1  Period   1, step 589
  0  0  0  0
  0  1  0  1  Period   1, step 590
  0  0  0  0
  0  1  0  1  Period   1, step 591
  0  0  0  0
  0  1  0  1  Period   1, step 592
  0  0  0  0
  0  1  0  1  Period   1, step 593
  0  0  0  0
  0  1  0  1  Period   1, step 594
  0  0  0  0
  0  1  0  1  Period   1, step 595
  0  0  0  0
  0  1  0  1  Period   1, step 596
  0  0  0  0
  0  1  0  1  Period   1, step 597
  0  0  0  0
  0  1  0  1  Period   1, step 598
  0  0  0  0
  0  1  0  1  Period   1, step 599
  0  0  0  0
  0  1  0  1  Period   1, step 600
  0  0  0  0
  0  1  0  1  Period   1, step 601
  0  0  0  0
  0  1  0  1  Period   1, step 602
  0  0  0  0
  0  1  0  1  Period   1, step 603
  0  0  0  0
  0  1  0  1  Period   1, step 604
  0  0  0  0
  0  1  0  1  Period   1, step 605
  0  0  0  0
  0  1  0  1  Period   1, step 606
  0  0  0  0
  0  1  0  1  Period   1, step 607
  0  0  0  0
  0  1  0  1  Period   1, step 608
  0  0  0  0
  0  1  0  1  Period   1, step 609
  0  0  0  0
  0  1  0  1  Period   1, step 610
  0  0  0  0
  0  1  0  1  Period   1, step 611
  0  0  0  0
  0  1  0  1  Period   1, step 612
  0  0  0  0
  0  1  0  1  Period   1, step 613
  0  0  0  0
  0  1  0  1  Period   1, step 614
  0  0  0  0
  0  1  0  1  Period   1, step 615
  0  0  0  0
  0  1  0  1  Period   1, step 616
  0  0  0  0
  0  1  0  1  Period   1, step 617
  0  0  0  0
  0  1  0  1  Period   1, step 618
  0  0  0  0
  0  1  0  1  Period   1, step 619
  0  0  0  0
  0  1  0  1  Period   1, step 620
  0  0  0  0
  0  1  0  1  Period   1, step 621
  0  0  0  0
  0  1  0  1  Period   1, step 622
  0  0  0  0
  0  1  0  1  Period   1, step 623