# Discretization file for MODFLOW, generated by Flopy.
         1         1        60         1         4         2
  0
CONSTANT    5.000000E+00                           #delr                          
CONSTANT    1.000000E+00                           #delc                          
CONSTANT    0.000000E+00                           #model_top                     
CONSTANT   -4.000000E+01                           #botm Layer 1                  
   2000.000000          1000  1.000000  SS 
