# GHB for MODFLOW, generated by Flopy.
        30         0
        30         0 # stress period 0
         1         1         1  0.000000  0.400000
         1         1         2  0.000000  0.400000
         1         1         3  0.000000  0.400000
         1         1         4  0.000000  0.400000
         1         1         5  0.000000  0.400000
         1         1         6  0.000000  0.400000
         1         1         7  0.000000  0.400000
         1         1         8  0.000000  0.400000
         1         1         9  0.000000  0.400000
         1         1        10  0.000000  0.400000
         1         1        11  0.000000  0.400000
         1         1        12  0.000000  0.400000
         1         1        13  0.000000  0.400000
         1         1        14  0.000000  0.400000
         1         1        15  0.000000  0.400000
         1         1        16  0.000000  0.400000
         1         1        17  0.000000  0.400000
         1         1        18  0.000000  0.400000
         1         1        19  0.000000  0.400000
         1         1        20  0.000000  0.400000
         1         1        21  0.000000  0.400000
         1         1        22  0.000000  0.400000
         1         1        23  0.000000  0.400000
         1         1        24  0.000000  0.400000
         1         1        25  0.000000  0.400000
         1         1        26  0.000000  0.400000
         1         1        27  0.000000  0.400000
         1         1        28  0.000000  0.400000
         1         1        29  0.000000  0.400000
         1         1        30  0.000000  0.400000
        -1         0 # stress period 1
