# Discretization file for MODFLOW, generated by Flopy.
         3         1       200         2         4         2
  0  0  0
CONSTANT    2.000000E+01                           #delr                          
CONSTANT    1.000000E+00                           #delc                          
CONSTANT   -9.000000E+00                           #model_top                     
CONSTANT   -2.900000E+01                           #botm Layer 1                  
CONSTANT   -3.000000E+01                           #botm Layer 2                  
CONSTANT   -5.000000E+01                           #botm Layer 3                  
 365000.000000           500  1.000000  SS 
 365000.000000           500  1.000000  SS 
