# Basic package file for MODFLOW, generated by Flopy.
 FREE
INTERNAL               1   (50I10)  -1 #ibound Layer 1                
         1         1         1         1         1         1         1         1         1         1         1         1         1         1         1         1         1         1         1         1         1         1         1         1         1         1         1         1         1         1         1         1         1         1         1         1         1         1         1         1         1         1         1         1         1         1         1         1         1        -1
        -999.99
CONSTANT    0.000000E+00                           #strt Layer 1                  
