# Output control package file for MODFLOW, generated by Flopy.
HEAD PRINT FORMAT   0
HEAD SAVE UNIT    51
DRAWDOWN PRINT FORMAT   0
DRAWDOWN SAVE UNIT    52
COMPACT BUDGET AUX

period 1 step 50 
save head
save budget

period 1 step 100 
save head
save budget

period 1 step 150 
save head
save budget

period 1 step 200 
save head
save budget

