# LPF for MODFLOW, generated by Flopy.
        53    -1E+30         0  
         0
         0
   1.000000E+00
         0
         0
CONSTANT    2.000000E+00                           #hk Layer 1                    
CONSTANT    2.000000E+00                           #vka Layer 1                   
