# Well file for MODFLOW, generated by Flopy.
         2         0
         2         0 # stress period 0
         1         1       200  0.010000
         3         1       200  0.020000
         2         0 # stress period 1
         1         1       200  0.005000
         3         1       200  0.010000
