# Test simulation 1A for the SWT Package in MODFLOW-2000
#
FREE
INTERNAL          1 (15I3)    2  IBOUND layer  1
  0  0  0  0  0  1  1  1  1  1  0  0  0  0  0
  0  0  0  0  1  1  1  1  1  1  1  1  0  0  0
  0  0  0  1  1  1  1  1  1  1  1  1  0  0  0
  0  0  0  1  1  1  1  1  1  1  1  1  0  0  0
  0  0  1  1  1  1  1  1  1  1  1  1  1  0  0
  0  0  1  1  1  1  1  1  1  1  1  1  1  1  0
  0  1  1  1  1  1  1  1  1  1  1  1  1  1  0
  0  1  1  1  1  1  1  1  1  1  1  1  1  1  0
  1  1  1  1  1  1  1  1  1  1  1  1  1  1  1
  1  1  1  1  1  1  1  1  1  1  1  1  1  1  1
  1  1  1  1  1  1  1  1  1  1  1  1  1  1  1
  0  1  1  1  1  1  1  1  1  1  1  1  1  1  1
  0  1  1  1  1  1  1  1  1  1  1  1  1  1  0
  0  1  1  1  1  1  1  1  1  1  1  1  1  1  0
  0  0  1  1  1  1  1  1  1  1  1  1  1  0  0
  0  0  1  1  1  1  1  1  1  1  1  1  1  0  0
  0  0  0  1  1  1  1  1  1  1  1  1  1  0  0
  0  0  0  1  1  1  1  1  1  1  1  1  0  0  0
  0  0  0  0  0  0  1  1  1  1  0  0  0  0  0
  0  0  0  0  0  0  0 -1 -1  0  0  0  0  0  0
INTERNAL          1 (15I3)    2  IBOUND layer  2
  0  0  0  0  0  1  1  1  1  1  0  0  0  0  0
  0  0  0  0  1  1  1  1  1  1  1  1  0  0  0
  0  0  0  1  1  1  1  1  1  1  1  1  0  0  0
  0  0  0  1  1  1  1  1  1  1  1  1  0  0  0
  0  0  1  1  1  1  1  1  1  1  1  1  1  0  0
  0  0  1  1  1  1  1  1  1  1  1  1  1  1  0
  0  1  1  1  1  1  1  1  1  1  1  1  1  1  0
  0  1  1  1  1  1  1  1  1  1  1  1  1  1  0
  1  1  1  1  1  1  1  1  1  1  1  1  1  1  1
  1  1  1  1  1  1  1  1  1  1  1  1  1  1  1
  1  1  1  1  1  1  1  1  1  1  1  1  1  1  1
  0  1  1  1  1  1  1  1  1  1  1  1  1  1  1
  0  1  1  1  1  1  1  1  1  1  1  1  1  1  0
  0  1  1  1  1  1  1  1  1  1  1  1  1  1  0
  0  0  1  1  1  1  1  1  1  1  1  1  1  0  0
  0  0  1  1  1  1  1  1  1  1  1  1  1  0  0
  0  0  0  1  1  1  1  1  1  1  1  1  1  0  0
  0  0  0  1  1  1  1  1  1  1  1  1  0  0  0
  0  0  0  0  0  0  1  1  1  1  0  0  0  0  0
  0  0  0  0  0  0  0 -1 -1  0  0  0  0  0  0
INTERNAL          1 (15I3)    2  IBOUND layer  3
  0  0  0  0  0  1  1  1  1  1  0  0  0  0  0
  0  0  0  0  1  1  1  1  1  1  1  1  0  0  0
  0  0  0  1  1  1  1  1  1  1  1  1  0  0  0
  0  0  0  1  1  1  1  1  1  1  1  1  0  0  0
  0  0  1  1  1  1  1  1  1  1  1  1  1  0  0
  0  0  1  1  1  1  1  1  1  1  1  1  1  1  0
  0  1  1  1  1  1  1  1  1  1  1  1  1  1  0
  0  1  1  1  1  1  1  1  1  1  1  1  1  1  0
  1  1  1  1  1  1  1  1  1  1  1  1  1  1  1
  1  1  1  1  1  1  1  1  1  1  1  1  1  1  1
  1  1  1  1  1  1  1  1  1  1  1  1  1  1  1
  0  1  1  1  1  1  1  1  1  1  1  1  1  1  1
  0  1  1  1  1  1  1  1  1  1  1  1  1  1  0
  0  1  1  1  1  1  1  1  1  1  1  1  1  1  0
  0  0  1  1  1  1  1  1  1  1  1  1  1  0  0
  0  0  1  1  1  1  1  1  1  1  1  1  1  0  0
  0  0  0  1  1  1  1  1  1  1  1  1  1  0  0
  0  0  0  1  1  1  1  1  1  1  1  1  0  0  0
  0  0  0  0  0  0  1  1  1  1  0  0  0  0  0
  0  0  0  0  0  0  0 -1 -1  0  0  0  0  0  0
INTERNAL          1 (15I3)    2  IBOUND layer  4
  0  0  0  0  0  1  1  1  1  1  0  0  0  0  0
  0  0  0  0  1  1  1  1  1  1  1  1  0  0  0
  0  0  0  1  1  1  1  1  1  1  1  1  0  0  0
  0  0  0  1  1  1  1  1  1  1  1  1  0  0  0
  0  0  1  1  1  1  1  1  1  1  1  1  1  0  0
  0  0  1  1  1  1  1  1  1  1  1  1  1  1  0
  0  1  1  1  1  1  1  1  1  1  1  1  1  1  0
  0  1  1  1  1  1  1  1  1  1  1  1  1  1  0
  1  1  1  1  1  1  1  1  1  1  1  1  1  1  1
  1  1  1  1  1  1  1  1  1  1  1  1  1  1  1
  1  1  1  1  1  1  1  1  1  1  1  1  1  1  1
  0  1  1  1  1  1  1  1  1  1  1  1  1  1  1
  0  1  1  1  1  1  1  1  1  1  1  1  1  1  0
  0  1  1  1  1  1  1  1  1  1  1  1  1  1  0
  0  0  1  1  1  1  1  1  1  1  1  1  1  0  0
  0  0  1  1  1  1  1  1  1  1  1  1  1  0  0
  0  0  0  1  1  1  1  1  1  1  1  1  1  0  0
  0  0  0  1  1  1  1  1  1  1  1  1  0  0  0
  0  0  0  0  0  0  1  1  1  1  0  0  0  0  0
  0  0  0  0  0  0  0 -1 -1  0  0  0  0  0  0
 0.000E+00  HNOFLO
CONSTANT 100.                              SHEAD layer  1
CONSTANT 100.                              SHEAD layer  2
CONSTANT 100.                              SHEAD layer  3
CONSTANT 100.                              SHEAD layer  4

