# MODFLOW-2000 test case tc2hufv4
FREE                               Item 1:  options
INTERNAL  1  (18i3)  -1            Item 2:  IBOUND, layer 1
 -1  1  1  1  1  1  1  1  1  1  1  0  0  0  0  0  0  0
 -1  1  1  1  1  1  1  1  1  1  1  1  0  0  0  0  0  0
 -1  1  1  1  1  1  1  1  1  1  1  1  1  0  0  0  0  0
 -1  1  1  1  1  1  1  1  1  1  1  1  1  1  0  0  0  0
 -1  1  1  1  1  1  1  1  1  1  1  1  1  1  1  0  0  0
 -1  1  1  1  1  1  1  1  1  1  1  1  1  1  1  1  0  0
  1  1  1  1  1  1  1  1  1  1  1  1  1  1  1  1  1  0
  1  1  1  1  1  1  1  1  1  1  1  1  1  1  1  1  1 -1
  1  1  1  1  1  1  1  1  1  1  1  1  1  1  1  1  1 -1
  1  1  1  1  1  1  1  1  1  1  1  1  1  1  1  1  1 -1
  1  1  1  1  1  1  1  1  1  1  1  1  1  1  1  1  1 -1
  0  0  0  0  1  1  1  1  1  1  1  1  1  1  1  1  1 -1
  0  0  0  0  0  1  1  1  1  1  1  1  1  1  1  1  1  1
  0  0  0  0  0  0  1  1  1  1  1  1  1  1  1  1  1  1
  0  0  0  0  0  0  0  1  1  1  1  1  1  1  1  1  1  1
  0  0  0  0  0  0  0  0  1  1  1  1  1  1  1  1  1  1
  0  0  0  0  0  0  0  0  0  1  1  1  1  1  1  1  1  1
  0  0  0  0  0  0  0  0  0  0  1  1  1  1  1  1  1  1
INTERNAL  1  (18i3)  -1            Item 2:  IBOUND, layer 2
 -1  1  1  1  1  1  1  1  1  1  1  0  0  0  0  0  0  0  
 -1  1  1  1  1  1  1  1  1  1  1  1  0  0  0  0  0  0
 -1  1  1  1  1  1  1  1  1  1  1  1  1  0  0  0  0  0
 -1  1  1  1  1  1  1  1  1  1  1  1  1  1  0  0  0  0
 -1  1  1  1  1  1  1  1  1  1  1  1  1  1  1  0  0  0
 -1  1  1  1  1  1  1  1  1  1  1  1  1  1  1  1  0  0
  1  1  1  1  1  1  1  1  1  1  1  1  1  1  1  1  1  0
  1  1  1  1  1  1  1  1  1  1  1  1  1  1  1  1  1 -1
  1  1  1  1  1  1  1  1  1  1  1  1  1  1  1  1  1 -1
  1  1  1  1  1  1  1  1  1  1  1  1  1  1  1  1  1 -1
  1  1  1  1  1  1  1  1  1  1  1  1  1  1  1  1  1 -1
  0  0  0  0  1  1  1  1  1  1  1  1  1  1  1  1  1 -1
  0  0  0  0  0  1  1  1  1  1  1  1  1  1  1  1  1  1
  0  0  0  0  0  0  1  1  1  1  1  1  1  1  1  1  1  1
  0  0  0  0  0  0  0  1  1  1  1  1  1  1  1  1  1  1
  0  0  0  0  0  0  0  0  1  1  1  1  1  1  1  1  1  1
  0  0  0  0  0  0  0  0  0  1  1  1  1  1  1  1  1  1
  0  0  0  0  0  0  0  0  0  0  1  1  1  1  1  1  1  1
INTERNAL  1  (18i3)  -1            Item 2:  IBOUND, layer 3
 -1  1  1  1  1  1  1  1  1  1  1  0  0  0  0  0  0  0
 -1  1  1  1  1  1  1  1  1  1  1  1  0  0  0  0  0  0
 -1  1  1  1  1  1  1  1  1  1  1  1  1  0  0  0  0  0
 -1  1  1  1  1  1  1  1  1  1  1  1  1  1  0  0  0  0
 -1  1  1  1  1  1  1  1  1  1  1  1  1  1  1  0  0  0
 -1  1  1  1  1  1  1  1  1  1  1  1  1  1  1  1  0  0
  1  1  1  1  1  1  1  1  1  1  1  1  1  1  1  1  1  0
  1  1  1  1  1  1  1  1  1  1  1  1  1  1  1  1  1 -1
  1  1  1  1  1  1  1  1  1  1  1  1  1  1  1  1  1 -1
  1  1  1  1  1  1  1  1  1  1  1  1  1  1  1  1  1 -1
  1  1  1  1  1  1  1  1  1  1  1  1  1  1  1  1  1 -1
  0  0  0  0  1  1  1  1  1  1  1  1  1  1  1  1  1 -1
  0  0  0  0  0  1  1  1  1  1  1  1  1  1  1  1  1  1
  0  0  0  0  0  0  1  1  1  1  1  1  1  1  1  1  1  1
  0  0  0  0  0  0  0  1  1  1  1  1  1  1  1  1  1  1
  0  0  0  0  0  0  0  0  1  1  1  1  1  1  1  1  1  1
  0  0  0  0  0  0  0  0  0  1  1  1  1  1  1  1  1  1
  0  0  0  0  0  0  0  0  0  0  1  1  1  1  1  1  1  1
     9999.                         Item 3:  HNOFLO
INTERNAL  1.0  (18f10.2)  -2       Item 4:  STRT, layer 1
      0.00    466.66    970.89    979.17    979.48    980.07   1025.00   1123.69   1184.28   1185.76   1186.51   9999.00   9999.00   9999.00   9999.00   9999.00   9999.00   9999.00
      0.00    460.53    968.83    979.02    979.21    979.77   1015.11   1103.04   1170.61   1186.49   1187.26   1188.65   9999.00   9999.00   9999.00   9999.00   9999.00   9999.00
      0.00    432.95    961.24    973.60    978.55    957.74    987.47   1088.84   1179.69   1186.78   1187.39   1190.05   1191.79   9999.00   9999.00   9999.00   9999.00   9999.00
      0.00    291.69    752.49    967.22    971.47    964.35    990.43   1082.56   1176.54   1177.24   1159.66   1192.36   1193.54   1194.92   9999.00   9999.00   9999.00   9999.00
      0.00    220.86    552.04    799.15    897.53    929.42    956.07    983.73   1077.55   1147.71   1154.33   1194.15   1195.09   1196.29   1197.29   9999.00   9999.00   9999.00
      0.00    188.80    463.00    692.59    852.09    892.57    932.76    906.94   1007.63   1147.73   1201.15   1195.77   1196.37   1197.88   1198.28   1198.34   9999.00   9999.00
     27.65    189.71    420.51    653.17    857.06    922.11   1014.73    951.16   1023.76   1183.96   1259.68   1242.39   1215.40   1200.60   1200.03   1198.83   1197.33   9999.00
     50.33    209.99    431.34    642.47    850.77    944.38   1014.46    953.31   1036.80   1233.05   1337.05   1346.38   1256.78   1205.05   1203.72   1200.92   1197.30   1100.00
     67.18    233.93    444.97    634.74    835.28    925.80    971.05    931.50   1049.61   1275.58   1407.16   1449.87   1356.59   1209.95   1209.11   1204.70   1176.94   1100.00
     77.44    262.59    462.38    635.42    812.44    951.31    990.28    999.73   1107.81   1286.30   1395.35   1453.25   1424.78   1276.80   1214.27   1202.18   1159.09   1100.00
    207.65    336.39    484.48    640.95    809.63    926.59    996.19   1045.80   1129.56   1312.27   1441.08   1456.96   1447.99   1315.52   1217.30   1204.81   1157.15   1100.00
   9999.00   9999.00   9999.00   9999.00    871.62    949.88   1018.16   1062.88   1036.73   1312.10   1459.70   1459.79   1479.20   1375.99   1284.80   1218.50   1164.71   1100.00
   9999.00   9999.00   9999.00   9999.00   9999.00   1000.38   1063.05   1123.83   1184.97   1336.58   1482.97   1513.53   1515.39   1419.18   1314.91   1228.81   1181.96   1153.66
   9999.00   9999.00   9999.00   9999.00   9999.00   9999.00   1117.51   1183.17   1225.02   1283.48   1375.39   1404.99   1388.08   1333.35   1276.05   1215.86   1193.01   1177.67
   9999.00   9999.00   9999.00   9999.00   9999.00   9999.00   9999.00   1239.21   1241.07   1242.52   1282.86   1303.60   1286.91   1219.00   1240.73   1206.68   1193.28   1188.76
   9999.00   9999.00   9999.00   9999.00   9999.00   9999.00   9999.00   9999.00   1241.55   1242.06   1255.55   1262.52   1249.10   1206.20   1216.15   1197.47   1193.35   1192.28
   9999.00   9999.00   9999.00   9999.00   9999.00   9999.00   9999.00   9999.00   9999.00   1242.22   1246.68   1247.25   1238.52   1221.48   1209.43   1195.85   1194.18   1193.66
   9999.00   9999.00   9999.00   9999.00   9999.00   9999.00   9999.00   9999.00   9999.00   9999.00   1244.51   1242.16   1234.80   1222.75   1208.12   1195.45   1194.60   1194.10
INTERNAL  1.0  (18f10.2)  -2       Item 4:  STRT, layer 2
      0.00    466.66    970.89    979.17    979.48    980.07   1025.00   1123.69   1184.28   1185.76   1186.51   9999.00   9999.00   9999.00   9999.00   9999.00   9999.00   9999.00
      0.00    460.53    968.83    979.02    979.21    979.77   1015.11   1103.04   1170.61   1186.49   1187.26   1188.65   9999.00   9999.00   9999.00   9999.00   9999.00   9999.00
      0.00    432.95    961.24    973.60    978.55    957.74    987.47   1088.84   1179.69   1186.78   1187.39   1190.05   1191.79   9999.00   9999.00   9999.00   9999.00   9999.00
      0.00    291.69    752.49    967.22    971.47    964.35    990.43   1082.56   1176.54   1177.24   1159.66   1192.36   1193.54   1194.92   9999.00   9999.00   9999.00   9999.00
      0.00    220.86    552.04    799.15    897.53    929.42    956.07    983.73   1077.55   1147.71   1154.33   1194.15   1195.09   1196.29   1197.29   9999.00   9999.00   9999.00
      0.00    188.80    463.00    692.59    852.09    892.57    932.76    906.94   1007.63   1147.73   1201.15   1195.77   1196.37   1197.88   1198.28   1198.34   9999.00   9999.00
     27.65    189.71    420.51    653.17    857.06    922.11   1014.73    951.16   1023.76   1183.96   1259.68   1242.39   1215.40   1200.60   1200.03   1198.83   1197.33   9999.00
     50.33    209.99    431.34    642.47    850.77    944.38   1014.46    953.31   1036.80   1233.05   1337.05   1346.38   1256.78   1205.05   1203.72   1200.92   1197.30   1100.00
     67.18    233.93    444.97    634.74    835.28    925.80    971.05    931.50   1049.61   1275.58   1407.16   1449.87   1356.59   1209.95   1209.11   1204.70   1176.94   1100.00
     77.44    262.59    462.38    635.42    812.44    951.31    990.28    999.73   1107.81   1286.30   1395.35   1453.25   1424.78   1276.80   1214.27   1202.18   1159.09   1100.00
    207.65    336.39    484.48    640.95    809.63    926.59    996.19   1045.80   1129.56   1312.27   1441.08   1456.96   1447.99   1315.52   1217.30   1204.81   1157.15   1100.00
   9999.00   9999.00   9999.00   9999.00    871.62    949.88   1018.16   1062.88   1036.73   1312.10   1459.70   1459.79   1479.20   1375.99   1284.80   1218.50   1164.71   1100.00
   9999.00   9999.00   9999.00   9999.00   9999.00   1000.38   1063.05   1123.83   1184.97   1336.58   1482.97   1513.53   1515.39   1419.18   1314.91   1228.81   1181.96   1153.66
   9999.00   9999.00   9999.00   9999.00   9999.00   9999.00   1117.51   1183.17   1225.02   1283.48   1375.39   1404.99   1388.08   1333.35   1276.05   1215.86   1193.01   1177.67
   9999.00   9999.00   9999.00   9999.00   9999.00   9999.00   9999.00   1239.21   1241.07   1242.52   1282.86   1303.60   1286.91   1219.00   1240.73   1206.68   1193.28   1188.76
   9999.00   9999.00   9999.00   9999.00   9999.00   9999.00   9999.00   9999.00   1241.55   1242.06   1255.55   1262.52   1249.10   1206.20   1216.15   1197.47   1193.35   1192.28
   9999.00   9999.00   9999.00   9999.00   9999.00   9999.00   9999.00   9999.00   9999.00   1242.22   1246.68   1247.25   1238.52   1221.48   1209.43   1195.85   1194.18   1193.66
   9999.00   9999.00   9999.00   9999.00   9999.00   9999.00   9999.00   9999.00   9999.00   9999.00   1244.51   1242.16   1234.80   1222.75   1208.12   1195.45   1194.60   1194.10
INTERNAL  1.0  (18f10.2)  -2       Item 4:  STRT, layer 3
      0.00    466.66    970.89    979.17    979.48    980.07   1025.00   1123.69   1184.28   1185.76   1186.51   9999.00   9999.00   9999.00   9999.00   9999.00   9999.00   9999.00
      0.00    460.53    968.83    979.02    979.21    979.77   1015.11   1103.04   1170.61   1186.49   1187.26   1188.65   9999.00   9999.00   9999.00   9999.00   9999.00   9999.00
      0.00    432.95    961.24    973.60    978.55    957.74    987.47   1088.84   1179.69   1186.78   1187.39   1190.05   1191.79   9999.00   9999.00   9999.00   9999.00   9999.00
      0.00    291.69    752.49    967.22    971.47    964.35    990.43   1082.56   1176.54   1177.24   1159.66   1192.36   1193.54   1194.92   9999.00   9999.00   9999.00   9999.00
      0.00    220.86    552.04    799.15    897.53    929.42    956.07    983.73   1077.55   1147.71   1154.33   1194.15   1195.09   1196.29   1197.29   9999.00   9999.00   9999.00
      0.00    188.80    463.00    692.59    852.09    892.57    932.76    906.94   1007.63   1147.73   1201.15   1195.77   1196.37   1197.88   1198.28   1198.34   9999.00   9999.00
     27.65    189.71    420.51    653.17    857.06    922.11   1014.73    951.16   1023.76   1183.96   1259.68   1242.39   1215.40   1200.60   1200.03   1198.83   1197.33   9999.00
     50.33    209.99    431.34    642.47    850.77    944.38   1014.46    953.31   1036.80   1233.05   1337.05   1346.38   1256.78   1205.05   1203.72   1200.92   1197.30   1100.00
     67.18    233.93    444.97    634.74    835.28    925.80    971.05    931.50   1049.61   1275.58   1407.16   1449.87   1356.59   1209.95   1209.11   1204.70   1176.94   1100.00
     77.44    262.59    462.38    635.42    812.44    951.31    990.28    999.73   1107.81   1286.30   1395.35   1453.25   1424.78   1276.80   1214.27   1202.18   1159.09   1100.00
    207.65    336.39    484.48    640.95    809.63    926.59    996.19   1045.80   1129.56   1312.27   1441.08   1456.96   1447.99   1315.52   1217.30   1204.81   1157.15   1100.00
   9999.00   9999.00   9999.00   9999.00    871.62    949.88   1018.16   1062.88   1036.73   1312.10   1459.70   1459.79   1479.20   1375.99   1284.80   1218.50   1164.71   1100.00
   9999.00   9999.00   9999.00   9999.00   9999.00   1000.38   1063.05   1123.83   1184.97   1336.58   1482.97   1513.53   1515.39   1419.18   1314.91   1228.81   1181.96   1153.66
   9999.00   9999.00   9999.00   9999.00   9999.00   9999.00   1117.51   1183.17   1225.02   1283.48   1375.39   1404.99   1388.08   1333.35   1276.05   1215.86   1193.01   1177.67
   9999.00   9999.00   9999.00   9999.00   9999.00   9999.00   9999.00   1239.21   1241.07   1242.52   1282.86   1303.60   1286.91   1219.00   1240.73   1206.68   1193.28   1188.76
   9999.00   9999.00   9999.00   9999.00   9999.00   9999.00   9999.00   9999.00   1241.55   1242.06   1255.55   1262.52   1249.10   1206.20   1216.15   1197.47   1193.35   1192.28
   9999.00   9999.00   9999.00   9999.00   9999.00   9999.00   9999.00   9999.00   9999.00   1242.22   1246.68   1247.25   1238.52   1221.48   1209.43   1195.85   1194.18   1193.66
   9999.00   9999.00   9999.00   9999.00   9999.00   9999.00   9999.00   9999.00   9999.00   9999.00   1244.51   1242.16   1234.80   1222.75   1208.12   1195.45   1194.60   1194.10
