# Discretization file for MODFLOW, generated by Flopy.
         9       680       680         1         4         1
  0  0  0  0  0  0  0  0  0
OPEN/CLOSE                  .\ref\delr.ref               1 (680E15.6) -1 delr                          
OPEN/CLOSE                  .\ref\delc.ref               1 (680E15.6) -1 delc                          
OPEN/CLOSE   .\ref\dem_3dep_fasft_mean.ref               1     (FREE) -1 model_top                     
OPEN/CLOSE           .\ref\FAS_botm_L1.ref               1     (FREE) -1 botm layer 1                  
OPEN/CLOSE           .\ref\FAS_botm_L2.ref               1     (FREE) -1 botm layer 2                  
OPEN/CLOSE           .\ref\FAS_botm_L3.ref               1     (FREE) -1 botm layer 3                  
OPEN/CLOSE           .\ref\FAS_botm_L4.ref               1     (FREE) -1 botm layer 4                  
OPEN/CLOSE           .\ref\FAS_botm_L5.ref               1     (FREE) -1 botm layer 5                  
OPEN/CLOSE           .\ref\FAS_botm_L6.ref               1     (FREE) -1 botm layer 6                  
OPEN/CLOSE           .\ref\FAS_botm_L7.ref               1     (FREE) -1 botm layer 7                  
OPEN/CLOSE           .\ref\FAS_botm_L8.ref               1     (FREE) -1 botm layer 8                  
OPEN/CLOSE           .\ref\FAS_botm_L9.ref               1     (FREE) -1 botm layer 9                  
      1.000000             1  1.000000  SS 
