#Test problem from USGS Techniques and Methods 6 A-16.  Cells 1,10,14 and
#  3,6,12 given a large transmissivity, and HFB is used to cause the
#  transmissivity to be essentially the same as before.
#  For layer 1, K is .001.  The barrier width will represent half a cell
#  (2500 ft), so HYDCHR=.001/2500.
#  For layer 3, K is .0002, so HYDCHR is .0002/2500.

BEGIN OPTIONS
  PRINT_INPUT
END OPTIONS

BEGIN DIMENSIONS
  MAXHFB 8
END DIMENSIONS

BEGIN PERIOD 1
#       L1        R1        C1       L2         R2        C2    HYDCHR
         1        10        14        1         10        15      4E-7
         1        10        13        1         10        14      4E-7
         1        10        14        1         11        14      4E-7
         1         9        14        1         10        14      4E-7
         5         6        12        5          6        13      8E-8
         5         6        11        5          6        12      8E-8
         5         6        12        5          7        12      8E-8
         5         5        12        5          6        12      8E-8
END PERIOD

