# RCH8 input file, prepared by mf5to15 on 6/29/2015 at 10:25:19.

BEGIN Options
  READASARRAYS
  FIXED_CELL
END Options

BEGIN PERIOD 1
  RECHARGE
    INTERNAL
	  3.00000000E-08  3.00000000E-08  3.00000000E-08  3.00000000E-08  3.00000000E-08  3.00000000E-08  3.00000000E-08  3.00000000E-08  3.00000000E-08  3.00000000E-08  3.00000000E-08  3.00000000E-08  3.00000000E-08  3.00000000E-08  3.00000000E-08
	  3.00000000E-08  3.00000000E-08  3.00000000E-08  3.00000000E-08  3.00000000E-08  3.00000000E-08  3.00000000E-08  3.00000000E-08  3.00000000E-08  3.00000000E-08  3.00000000E-08  3.00000000E-08  3.00000000E-08  3.00000000E-08  3.00000000E-08
	  3.00000000E-08  3.00000000E-08  3.00000000E-08  3.00000000E-08  3.00000000E-08  3.00000000E-08  3.00000000E-08  3.00000000E-08  3.00000000E-08  3.00000000E-08  3.00000000E-08  3.00000000E-08  3.00000000E-08  3.00000000E-08  3.00000000E-08
	  3.00000000E-08  3.00000000E-08  3.00000000E-08  3.00000000E-08  3.00000000E-08  3.00000000E-08  3.00000000E-08  3.00000000E-08  3.00000000E-08  3.00000000E-08  3.00000000E-08  3.00000000E-08  3.00000000E-08  3.00000000E-08  3.00000000E-08
	  3.00000000E-08  3.00000000E-08  3.00000000E-08  3.00000000E-08  3.00000000E-08  3.00000000E-08  3.00000000E-08  3.00000000E-08  3.00000000E-08  3.00000000E-08  3.00000000E-08  3.00000000E-08  3.00000000E-08  3.00000000E-08  3.00000000E-08
	  3.00000000E-08  3.00000000E-08  3.00000000E-08  3.00000000E-08  3.00000000E-08  3.00000000E-08  3.00000000E-08  3.00000000E-08  3.00000000E-08  3.00000000E-08  3.00000000E-08  3.00000000E-08  3.00000000E-08  3.00000000E-08  3.00000000E-08
	  3.00000000E-08  3.00000000E-08  3.00000000E-08  3.00000000E-08  3.00000000E-08  3.00000000E-08  3.00000000E-08  3.00000000E-08  3.00000000E-08  3.00000000E-08  3.00000000E-08  3.00000000E-08  3.00000000E-08  3.00000000E-08  3.00000000E-08
	  3.00000000E-08  3.00000000E-08  3.00000000E-08  3.00000000E-08  3.00000000E-08  3.00000000E-08  3.00000000E-08  3.00000000E-08  3.00000000E-08  3.00000000E-08  3.00000000E-08  3.00000000E-08  3.00000000E-08  3.00000000E-08  3.00000000E-08
	  3.00000000E-08  3.00000000E-08  3.00000000E-08  3.00000000E-08  3.00000000E-08  3.00000000E-08  3.00000000E-08  3.00000000E-08  3.00000000E-08  3.00000000E-08  3.00000000E-08  3.00000000E-08  3.00000000E-08  3.00000000E-08  3.00000000E-08
	  3.00000000E-08  3.00000000E-08  3.00000000E-08  3.00000000E-08  3.00000000E-08  3.00000000E-08  3.00000000E-08  3.00000000E-08  3.00000000E-08  3.00000000E-08  3.00000000E-08  3.00000000E-08  3.00000000E-08  3.00000000E-08  3.00000000E-08
	  3.00000000E-08  3.00000000E-08  3.00000000E-08  3.00000000E-08  3.00000000E-08  3.00000000E-08  3.00000000E-08  3.00000000E-08  3.00000000E-08  3.00000000E-08  3.00000000E-08  3.00000000E-08  3.00000000E-08  3.00000000E-08  3.00000000E-08
	  3.00000000E-08  3.00000000E-08  3.00000000E-08  3.00000000E-08  3.00000000E-08  3.00000000E-08  3.00000000E-08  3.00000000E-08  3.00000000E-08  3.00000000E-08  3.00000000E-08  3.00000000E-08  3.00000000E-08  3.00000000E-08  3.00000000E-08
	  3.00000000E-08  3.00000000E-08  3.00000000E-08  3.00000000E-08  3.00000000E-08  3.00000000E-08  3.00000000E-08  3.00000000E-08  3.00000000E-08  3.00000000E-08  3.00000000E-08  3.00000000E-08  3.00000000E-08  3.00000000E-08  3.00000000E-08
	  3.00000000E-08  3.00000000E-08  3.00000000E-08  3.00000000E-08  3.00000000E-08  3.00000000E-08  3.00000000E-08  3.00000000E-08  3.00000000E-08  3.00000000E-08  3.00000000E-08  3.00000000E-08  3.00000000E-08  3.00000000E-08  3.00000000E-08
	  3.00000000E-08  3.00000000E-08  3.00000000E-08  3.00000000E-08  3.00000000E-08  3.00000000E-08  3.00000000E-08  3.00000000E-08  3.00000000E-08  3.00000000E-08  3.00000000E-08  3.00000000E-08  3.00000000E-08  3.00000000E-08  3.00000000E-08
END PERIOD
