# WEL8 input file, prepared by mf5to15 on 6/29/2015 at 10:25:19.

BEGIN Options
END Options

BEGIN Dimensions
  MAXBOUND  15
END Dimensions

BEGIN PERIOD 1
  5,  5,  11,   -5.0000000 # comment
  3,  4,  6,   -5.0000000
  3,  6,  12,   -5.0000000
  1,  9,  8,   -5.0000000
  1,  9,  10,   -5.0000000
  1,  9,  12,   -5.0000000
  1,  9,  14,   -5.0000000
  1,  11,  8,   -5.0000000
  1,  11,  10,   -5.0000000
  1,  11,  12,   -5.0000000
  1,  11,  14,   -5.0000000
  1,  13,  8,   -5.0000000
  1,  13,  10,   -5.0000000
  1,  13,  12,   -5.0000000
  1,  13,  14,   -5.0000000
END PERIOD
