# OC8 input file, prepared by mf5to15 on 6/29/2015 at 10:25:19.

BEGIN Options
  HEAD PRINT_FORMAT  COLUMNS 6  WIDTH 11  DIGITS 4  GENERAL
  HEAD FILEOUT twrihfb2015_output.hds
END Options

BEGIN PERIOD 1
  PRINT BUDGET ALL
  PRINT HEAD ALL
  SAVE HEAD ALL
END PERIOD
