# NPF8 input file, prepared by mf5to15 on 6/29/2015 at 10:25:19.

BEGIN Options
  PERCHED
END Options

BEGIN GRIDDATA
  Icelltype LAYERED
    CONSTANT  1
    CONSTANT  0
    CONSTANT  0
    CONSTANT  0
    CONSTANT  0
  k  LAYERED
    INTERNAL  FACTOR  1.0  IPRN  -12
  0.100000000E-02  0.100000000E-02  0.100000000E-02  0.100000000E-02  0.100000000E-02  0.100000000E-02  0.100000000E-02  0.100000000E-02  0.100000000E-02  0.100000000E-02
  0.100000000E-02  0.100000000E-02  0.100000000E-02  0.100000000E-02  0.100000000E-02
  0.100000000E-02  0.100000000E-02  0.100000000E-02  0.100000000E-02  0.100000000E-02  0.100000000E-02  0.100000000E-02  0.100000000E-02  0.100000000E-02  0.100000000E-02
  0.100000000E-02  0.100000000E-02  0.100000000E-02  0.100000000E-02  0.100000000E-02
  0.100000000E-02  0.100000000E-02  0.100000000E-02  0.100000000E-02  0.100000000E-02  0.100000000E-02  0.100000000E-02  0.100000000E-02  0.100000000E-02  0.100000000E-02
  0.100000000E-02  0.100000000E-02  0.100000000E-02  0.100000000E-02  0.100000000E-02
  0.100000000E-02  0.100000000E-02  0.100000000E-02  0.100000000E-02  0.100000000E-02  0.100000000E-02  0.100000000E-02  0.100000000E-02  0.100000000E-02  0.100000000E-02
  0.100000000E-02  0.100000000E-02  0.100000000E-02  0.100000000E-02  0.100000000E-02
  0.100000000E-02  0.100000000E-02  0.100000000E-02  0.100000000E-02  0.100000000E-02  0.100000000E-02  0.100000000E-02  0.100000000E-02  0.100000000E-02  0.100000000E-02
  0.100000000E-02  0.100000000E-02  0.100000000E-02  0.100000000E-02  0.100000000E-02
  0.100000000E-02  0.100000000E-02  0.100000000E-02  0.100000000E-02  0.100000000E-02  0.100000000E-02  0.100000000E-02  0.100000000E-02  0.100000000E-02  0.100000000E-02
  0.100000000E-02  0.100000000E-02  0.100000000E-02  0.100000000E-02  0.100000000E-02
  0.100000000E-02  0.100000000E-02  0.100000000E-02  0.100000000E-02  0.100000000E-02  0.100000000E-02  0.100000000E-02  0.100000000E-02  0.100000000E-02  0.100000000E-02
  0.100000000E-02  0.100000000E-02  0.100000000E-02  0.100000000E-02  0.100000000E-02
  0.100000000E-02  0.100000000E-02  0.100000000E-02  0.100000000E-02  0.100000000E-02  0.100000000E-02  0.100000000E-02  0.100000000E-02  0.100000000E-02  0.100000000E-02
  0.100000000E-02  0.100000000E-02  0.100000000E-02  0.100000000E-02  0.100000000E-02
  0.100000000E-02  0.100000000E-02  0.100000000E-02  0.100000000E-02  0.100000000E-02  0.100000000E-02  0.100000000E-02  0.100000000E-02  0.100000000E-02  0.100000000E-02
  0.100000000E-02  0.100000000E-02  0.100000000E-02  0.100000000E-02  0.100000000E-02
  0.100000000E-02  0.100000000E-02  0.100000000E-02  0.100000000E-02  0.100000000E-02  0.100000000E-02  0.100000000E-02  0.100000000E-02  0.100000000E-02  0.100000000E-02
  0.100000000E-02  0.100000000E-02  0.100000000E-02  100.0000000      0.100000000E-02
  0.100000000E-02  0.100000000E-02  0.100000000E-02  0.100000000E-02  0.100000000E-02  0.100000000E-02  0.100000000E-02  0.100000000E-02  0.100000000E-02  0.100000000E-02
  0.100000000E-02  0.100000000E-02  0.100000000E-02  0.100000000E-02  0.100000000E-02
  0.100000000E-02  0.100000000E-02  0.100000000E-02  0.100000000E-02  0.100000000E-02  0.100000000E-02  0.100000000E-02  0.100000000E-02  0.100000000E-02  0.100000000E-02
  0.100000000E-02  0.100000000E-02  0.100000000E-02  0.100000000E-02  0.100000000E-02
  0.100000000E-02  0.100000000E-02  0.100000000E-02  0.100000000E-02  0.100000000E-02  0.100000000E-02  0.100000000E-02  0.100000000E-02  0.100000000E-02  0.100000000E-02
  0.100000000E-02  0.100000000E-02  0.100000000E-02  0.100000000E-02  0.100000000E-02
  0.100000000E-02  0.100000000E-02  0.100000000E-02  0.100000000E-02  0.100000000E-02  0.100000000E-02  0.100000000E-02  0.100000000E-02  0.100000000E-02  0.100000000E-02
  0.100000000E-02  0.100000000E-02  0.100000000E-02  0.100000000E-02  0.100000000E-02
  0.100000000E-02  0.100000000E-02  0.100000000E-02  0.100000000E-02  0.100000000E-02  0.100000000E-02  0.100000000E-02  0.100000000E-02  0.100000000E-02  0.100000000E-02
  0.100000000E-02  0.100000000E-02  0.100000000E-02  0.100000000E-02  0.100000000E-02
    CONSTANT   0.328000000E-12
    CONSTANT   0.100000000E-03
    CONSTANT   0.328000000E-12
    INTERNAL  FACTOR  1.0  IPRN  -12
  0.200000000E-03  0.200000000E-03  0.200000000E-03  0.200000000E-03  0.200000000E-03  0.200000000E-03  0.200000000E-03  0.200000000E-03  0.200000000E-03  0.200000000E-03
  0.200000000E-03  0.200000000E-03  0.200000000E-03  0.200000000E-03  0.200000000E-03
  0.200000000E-03  0.200000000E-03  0.200000000E-03  0.200000000E-03  0.200000000E-03  0.200000000E-03  0.200000000E-03  0.200000000E-03  0.200000000E-03  0.200000000E-03
  0.200000000E-03  0.200000000E-03  0.200000000E-03  0.200000000E-03  0.200000000E-03
  0.200000000E-03  0.200000000E-03  0.200000000E-03  0.200000000E-03  0.200000000E-03  0.200000000E-03  0.200000000E-03  0.200000000E-03  0.200000000E-03  0.200000000E-03
  0.200000000E-03  0.200000000E-03  0.200000000E-03  0.200000000E-03  0.200000000E-03
  0.200000000E-03  0.200000000E-03  0.200000000E-03  0.200000000E-03  0.200000000E-03  0.200000000E-03  0.200000000E-03  0.200000000E-03  0.200000000E-03  0.200000000E-03
  0.200000000E-03  0.200000000E-03  0.200000000E-03  0.200000000E-03  0.200000000E-03
  0.200000000E-03  0.200000000E-03  0.200000000E-03  0.200000000E-03  0.200000000E-03  0.200000000E-03  0.200000000E-03  0.200000000E-03  0.200000000E-03  0.200000000E-03
  0.200000000E-03  0.200000000E-03  0.200000000E-03  0.200000000E-03  0.200000000E-03
  0.200000000E-03  0.200000000E-03  0.200000000E-03  0.200000000E-03  0.200000000E-03  0.200000000E-03  0.200000000E-03  0.200000000E-03  0.200000000E-03  0.200000000E-03
  0.200000000E-03   20.0000000      0.200000000E-03  0.200000000E-03  0.200000000E-03
  0.200000000E-03  0.200000000E-03  0.200000000E-03  0.200000000E-03  0.200000000E-03  0.200000000E-03  0.200000000E-03  0.200000000E-03  0.200000000E-03  0.200000000E-03
  0.200000000E-03  0.200000000E-03  0.200000000E-03  0.200000000E-03  0.200000000E-03
  0.200000000E-03  0.200000000E-03  0.200000000E-03  0.200000000E-03  0.200000000E-03  0.200000000E-03  0.200000000E-03  0.200000000E-03  0.200000000E-03  0.200000000E-03
  0.200000000E-03  0.200000000E-03  0.200000000E-03  0.200000000E-03  0.200000000E-03
  0.200000000E-03  0.200000000E-03  0.200000000E-03  0.200000000E-03  0.200000000E-03  0.200000000E-03  0.200000000E-03  0.200000000E-03  0.200000000E-03  0.200000000E-03
  0.200000000E-03  0.200000000E-03  0.200000000E-03  0.200000000E-03  0.200000000E-03
  0.200000000E-03  0.200000000E-03  0.200000000E-03  0.200000000E-03  0.200000000E-03  0.200000000E-03  0.200000000E-03  0.200000000E-03  0.200000000E-03  0.200000000E-03
  0.200000000E-03  0.200000000E-03  0.200000000E-03  0.200000000E-03  0.200000000E-03
  0.200000000E-03  0.200000000E-03  0.200000000E-03  0.200000000E-03  0.200000000E-03  0.200000000E-03  0.200000000E-03  0.200000000E-03  0.200000000E-03  0.200000000E-03
  0.200000000E-03  0.200000000E-03  0.200000000E-03  0.200000000E-03  0.200000000E-03
  0.200000000E-03  0.200000000E-03  0.200000000E-03  0.200000000E-03  0.200000000E-03  0.200000000E-03  0.200000000E-03  0.200000000E-03  0.200000000E-03  0.200000000E-03
  0.200000000E-03  0.200000000E-03  0.200000000E-03  0.200000000E-03  0.200000000E-03
  0.200000000E-03  0.200000000E-03  0.200000000E-03  0.200000000E-03  0.200000000E-03  0.200000000E-03  0.200000000E-03  0.200000000E-03  0.200000000E-03  0.200000000E-03
  0.200000000E-03  0.200000000E-03  0.200000000E-03  0.200000000E-03  0.200000000E-03
  0.200000000E-03  0.200000000E-03  0.200000000E-03  0.200000000E-03  0.200000000E-03  0.200000000E-03  0.200000000E-03  0.200000000E-03  0.200000000E-03  0.200000000E-03
  0.200000000E-03  0.200000000E-03  0.200000000E-03  0.200000000E-03  0.200000000E-03
  0.200000000E-03  0.200000000E-03  0.200000000E-03  0.200000000E-03  0.200000000E-03  0.200000000E-03  0.200000000E-03  0.200000000E-03  0.200000000E-03  0.200000000E-03
  0.200000000E-03  0.200000000E-03  0.200000000E-03  0.200000000E-03  0.200000000E-03
  K33  LAYERED
    CONSTANT   0.100000000E+21
    CONSTANT   0.100000000E-05
    CONSTANT   0.100000000E+21
    CONSTANT   0.100000000E-05
    CONSTANT   0.100000000E-05
END GRIDDATA
