# DRN8 input file, prepared by mf5to15 on 6/29/2015 at 10:25:19.

BEGIN Options
END Options

BEGIN Dimensions
  MAXBOUND  9
END Dimensions

BEGIN PERIOD 1
  1  8  2    0.0000000       1.00000000
  1  8  3    0.0000000       1.00000000
  1  8  4   10.0000000       1.00000000
  1  8  5    20.000000       1.00000000
  1  8  6    30.000000       1.00000000
  1  8  7    50.000000       1.00000000
  1  8  8    70.000000       1.00000000
  1  8  9    90.000000       1.00000000
  1  8  10   100.000000       1.00000000
END PERIOD
