#
# INPUT DATA FILE FOR THE LINK-MT3DMS (LMT6) PACKAGE
#
OUTPUT_FILE_NAME   t5.ftl
OUTPUT_FILE_UNIT   333
OUTPUT_FILE_HEADER Extended
OUTPUT_FILE_FORMAT Unformatted
