# File generated by Flopy version 3.5.0.dev0 on 10/30/2023 at 09:02:45.
BEGIN options
END options

BEGIN timing
  TDIS6  csub_sub03a.tdis
END timing

BEGIN models
  gwf6  csub_sub03a.nam  csub_sub03a
END models

BEGIN exchanges
END exchanges

BEGIN solutiongroup  1
  ims6  csub_sub03a.ims  csub_sub03a
END solutiongroup  1

