# Output control package file for MODFLOW, generated by Flopy.
  2  0   51   52
  0  1  0  1  Period   1, step   1
  1  0  1  0
