# Unstructured discretization file for MODFLOW-USG
       121         1       601         0         1         4         2 0
  0
constant 121
constant 0.
constant -100.
internal 1.0 (5G13.0) -1 AREA(K=1)
        10000        10000        10000        10000        10000
        10000        10000        10000        10000        10000
        10000        10000        10000        10000        10000
        10000        10000        10000        10000        10000
        10000        10000        10000        10000        10000
        10000        10000        10000        10000        10000
        10000        10000        10000        10000        10000
        10000        10000        10000        10000        10000
      1111.11      1111.11      1111.11      1111.11      1111.11
      1111.11      1111.11      1111.11      1111.11      1111.11
      1111.11      1111.11      1111.11      1111.11      1111.11
      1111.11      1111.11      1111.11      1111.11      1111.11
      1111.11      1111.11      1111.11      1111.11      1111.11
      1111.11      1111.11      1111.11      1111.11      1111.11
      1111.11      1111.11      1111.11      1111.11      1111.11
      1111.11      1111.11      1111.11      1111.11      1111.11
      1111.11      1111.11      1111.11      1111.11      1111.11
      1111.11      1111.11      1111.11      1111.11      1111.11
      1111.11      1111.11      1111.11      1111.11      1111.11
      1111.11      1111.11      1111.11      1111.11      1111.11
      1111.11      1111.11      1111.11      1111.11      1111.11
      1111.11      1111.11      1111.11      1111.11      1111.11
      1111.11      1111.11      1111.11      1111.11      1111.11
      1111.11      1111.11      1111.11      1111.11      1111.11
      1111.11
internal 1 (5I13) -1 IAC(NODES)
            3            4            4            4            4
            4            3            4            5            7
            7            7            5            4            4
            7            7            4            4            7
            7            4            4            7            7
            4            4            5            7            7
            7            5            4            3            4
            4            4            4            4            3
            5            5            5            5            5
            5            5            5            5            5
            5            5            5            5            5
            5            5            5            5            5
            5            5            5            5            5
            5            5            5            5            5
            5            5            5            5            5
            5            5            5            5            5
            5            5            5            5            5
            5            5            5            5            5
            5            5            5            5            5
            5            5            5            5            5
            5            5            5            5            5
            5            5            5            5            5
            5            5            5            5            5
            5            5            5            5            5
            5
internal 1 (5I13) -1 JA(NJAG)
            1            2            8            2            1
            3            9            3            2            4
           10            4            3            5           11
            5            4            6           12            6
            5            7           13            7            6
           14            8            1            9           15
            9            2            8           10           16
           10            3            9           11           41
           42           43           11            4           10
           12           44           45           46           12
            5           11           13           47           48
           49           13            6           12           14
           17           14            7           13           18
           15            8           16           19           16
            9           15           20           41           50
           59           17           13           18           21
           49           58           67           18           14
           17           22           19           15           20
           23           20           16           19           24
           68           77           86           21           17
           22           25           76           85           94
           22           18           21           26           23
           19           24           27           24           20
           23           28           95          104          113
           25           21           26           32          103
          112          121           26           22           25
           33           27           23           28           34
           28           24           27           29           35
           29           28           30           36          113
          114          115           30           29           31
           37          116          117          118           31
           30           32           38          119          120
          121           32           25           31           33
           39           33           26           32           40
           34           27           35           35           28
           34           36           36           29           35
           37           37           30           36           38
           38           31           37           39           39
           32           38           40           40           33
           39           41           10           16           42
           50           42           10           41           43
           51           43           10           42           44
           52           44           11           43           45
           53           45           11           44           46
           54           46           11           45           47
           55           47           12           46           48
           56           48           12           47           49
           57           49           12           17           48
           58           50           16           41           51
           59           51           42           50           52
           60           52           43           51           53
           61           53           44           52           54
           62           54           45           53           55
           63           55           46           54           56
           64           56           47           55           57
           65           57           48           56           58
           66           58           17           49           57
           67           59           16           50           60
           68           60           51           59           61
           69           61           52           60           62
           70           62           53           61           63
           71           63           54           62           64
           72           64           55           63           65
           73           65           56           64           66
           74           66           57           65           67
           75           67           17           58           66
           76           68           20           59           69
           77           69           60           68           70
           78           70           61           69           71
           79           71           62           70           72
           80           72           63           71           73
           81           73           64           72           74
           82           74           65           73           75
           83           75           66           74           76
           84           76           21           67           75
           85           77           20           68           78
           86           78           69           77           79
           87           79           70           78           80
           88           80           71           79           81
           89           81           72           80           82
           90           82           73           81           83
           91           83           74           82           84
           92           84           75           83           85
           93           85           21           76           84
           94           86           20           77           87
           95           87           78           86           88
           96           88           79           87           89
           97           89           80           88           90
           98           90           81           89           91
           99           91           82           90           92
          100           92           83           91           93
          101           93           84           92           94
          102           94           21           85           93
          103           95           24           86           96
          104           96           87           95           97
          105           97           88           96           98
          106           98           89           97           99
          107           99           90           98          100
          108          100           91           99          101
          109          101           92          100          102
          110          102           93          101          103
          111          103           25           94          102
          112          104           24           95          105
          113          105           96          104          106
          114          106           97          105          107
          115          107           98          106          108
          116          108           99          107          109
          117          109          100          108          110
          118          110          101          109          111
          119          111          102          110          112
          120          112           25          103          111
          121          113           24           29          104
          114          114           29          105          113
          115          115           29          106          114
          116          116           30          107          115
          117          117           30          108          116
          118          118           30          109          117
          119          119           31          110          118
          120          120           31          111          119
          121          121           25           31          112
          120
internal 1 (5G13.0) -1 CL12(NJAG)
            0           50           50            0           50
           50           50            0           50           50
           50            0           50           50           50
            0           50           50           50            0
           50           50           50            0           50
           50            0           50           50           50
            0           50           50           50           50
            0           50           50           50           50
           50           50            0           50           50
           50           50           50           50            0
           50           50           50           50           50
           50            0           50           50           50
           50            0           50           50           50
            0           50           50           50            0
           50           50           50           50           50
           50            0           50           50           50
           50           50           50            0           50
           50           50            0           50           50
           50            0           50           50           50
           50           50           50            0           50
           50           50           50           50           50
            0           50           50           50            0
           50           50           50            0           50
           50           50           50           50           50
            0           50           50           50           50
           50           50            0           50           50
           50            0           50           50           50
            0           50           50           50           50
            0           50           50           50           50
           50           50            0           50           50
           50           50           50           50            0
           50           50           50           50           50
           50            0           50           50           50
           50            0           50           50           50
            0           50           50            0           50
           50           50            0           50           50
           50            0           50           50           50
            0           50           50           50            0
           50           50           50            0           50
           50            0      16.6667      16.6667      16.6667
      16.6667            0      16.6667      16.6667      16.6667
      16.6667            0      16.6667      16.6667      16.6667
      16.6667            0      16.6667      16.6667      16.6667
      16.6667            0      16.6667      16.6667      16.6667
      16.6667            0      16.6667      16.6667      16.6667
      16.6667            0      16.6667      16.6667      16.6667
      16.6667            0      16.6667      16.6667      16.6667
      16.6667            0      16.6667      16.6667      16.6667
      16.6667            0      16.6667      16.6667      16.6667
      16.6667            0      16.6667      16.6667      16.6667
      16.6667            0      16.6667      16.6667      16.6667
      16.6667            0      16.6667      16.6667      16.6667
      16.6667            0      16.6667      16.6667      16.6667
      16.6667            0      16.6667      16.6667      16.6667
      16.6667            0      16.6667      16.6667      16.6667
      16.6667            0      16.6667      16.6667      16.6667
      16.6667            0      16.6667      16.6667      16.6667
      16.6667            0      16.6667      16.6667      16.6667
      16.6667            0      16.6667      16.6667      16.6667
      16.6667            0      16.6667      16.6667      16.6667
      16.6667            0      16.6667      16.6667      16.6667
      16.6667            0      16.6667      16.6667      16.6667
      16.6667            0      16.6667      16.6667      16.6667
      16.6667            0      16.6667      16.6667      16.6667
      16.6667            0      16.6667      16.6667      16.6667
      16.6667            0      16.6667      16.6667      16.6667
      16.6667            0      16.6667      16.6667      16.6667
      16.6667            0      16.6667      16.6667      16.6667
      16.6667            0      16.6667      16.6667      16.6667
      16.6667            0      16.6667      16.6667      16.6667
      16.6667            0      16.6667      16.6667      16.6667
      16.6667            0      16.6667      16.6667      16.6667
      16.6667            0      16.6667      16.6667      16.6667
      16.6667            0      16.6667      16.6667      16.6667
      16.6667            0      16.6667      16.6667      16.6667
      16.6667            0      16.6667      16.6667      16.6667
      16.6667            0      16.6667      16.6667      16.6667
      16.6667            0      16.6667      16.6667      16.6667
      16.6667            0      16.6667      16.6667      16.6667
      16.6667            0      16.6667      16.6667      16.6667
      16.6667            0      16.6667      16.6667      16.6667
      16.6667            0      16.6667      16.6667      16.6667
      16.6667            0      16.6667      16.6667      16.6667
      16.6667            0      16.6667      16.6667      16.6667
      16.6667            0      16.6667      16.6667      16.6667
      16.6667            0      16.6667      16.6667      16.6667
      16.6667            0      16.6667      16.6667      16.6667
      16.6667            0      16.6667      16.6667      16.6667
      16.6667            0      16.6667      16.6667      16.6667
      16.6667            0      16.6667      16.6667      16.6667
      16.6667            0      16.6667      16.6667      16.6667
      16.6667            0      16.6667      16.6667      16.6667
      16.6667            0      16.6667      16.6667      16.6667
      16.6667            0      16.6667      16.6667      16.6667
      16.6667            0      16.6667      16.6667      16.6667
      16.6667            0      16.6667      16.6667      16.6667
      16.6667            0      16.6667      16.6667      16.6667
      16.6667            0      16.6667      16.6667      16.6667
      16.6667            0      16.6667      16.6667      16.6667
      16.6667            0      16.6667      16.6667      16.6667
      16.6667            0      16.6667      16.6667      16.6667
      16.6667            0      16.6667      16.6667      16.6667
      16.6667            0      16.6667      16.6667      16.6667
      16.6667            0      16.6667      16.6667      16.6667
      16.6667            0      16.6667      16.6667      16.6667
      16.6667            0      16.6667      16.6667      16.6667
      16.6667            0      16.6667      16.6667      16.6667
      16.6667            0      16.6667      16.6667      16.6667
      16.6667            0      16.6667      16.6667      16.6667
      16.6667            0      16.6667      16.6667      16.6667
      16.6667            0      16.6667      16.6667      16.6667
      16.6667            0      16.6667      16.6667      16.6667
      16.6667            0      16.6667      16.6667      16.6667
      16.6667            0      16.6667      16.6667      16.6667
      16.6667            0      16.6667      16.6667      16.6667
      16.6667            0      16.6667      16.6667      16.6667
      16.6667            0      16.6667      16.6667      16.6667
      16.6667            0      16.6667      16.6667      16.6667
      16.6667            0      16.6667      16.6667      16.6667
      16.6667            0      16.6667      16.6667      16.6667
      16.6667
internal 1 (free) -1 FAHL(NJAG)
            0        10000        10000            0        10000
        10000        10000            0        10000        10000
        10000            0        10000        10000        10000
            0        10000        10000        10000            0
        10000        10000        10000            0        10000
        10000            0        10000        10000        10000
            0        10000        10000        10000        10000
            0        10000        10000        10000      3333.33
      3333.33      3333.33            0        10000        10000
        10000      3333.33      3333.33      3333.33            0
        10000        10000        10000      3333.33      3333.33
      3333.33            0        10000        10000        10000
        10000            0        10000        10000        10000
            0        10000        10000        10000            0
        10000        10000        10000      3333.33      3333.33
      3333.33            0        10000        10000        10000
      3333.33      3333.33      3333.33            0        10000
        10000        10000            0        10000        10000
        10000            0        10000        10000        10000
      3333.33      3333.33      3333.33            0        10000
        10000        10000      3333.33      3333.33      3333.33
            0        10000        10000        10000            0
        10000        10000        10000            0        10000
        10000        10000      3333.33      3333.33      3333.33
            0        10000        10000        10000      3333.33
      3333.33      3333.33            0        10000        10000
        10000            0        10000        10000        10000
            0        10000        10000        10000        10000
            0        10000        10000        10000      3333.33
      3333.33      3333.33            0        10000        10000
        10000      3333.33      3333.33      3333.33            0
        10000        10000        10000      3333.33      3333.33
      3333.33            0        10000        10000        10000
        10000            0        10000        10000        10000
            0        10000        10000            0        10000
        10000        10000            0        10000        10000
        10000            0        10000        10000        10000
            0        10000        10000        10000            0
        10000        10000        10000            0        10000
        10000            0      3333.33      3333.33      3333.33
      3333.33            0      3333.33      3333.33      3333.33
      3333.33            0      3333.33      3333.33      3333.33
      3333.33            0      3333.33      3333.33      3333.33
      3333.33            0      3333.33      3333.33      3333.33
      3333.33            0      3333.33      3333.33      3333.33
      3333.33            0      3333.33      3333.33      3333.33
      3333.33            0      3333.33      3333.33      3333.33
      3333.33            0      3333.33      3333.33      3333.33
      3333.33            0      3333.33      3333.33      3333.33
      3333.33            0      3333.33      3333.33      3333.33
      3333.33            0      3333.33      3333.33      3333.33
      3333.33            0      3333.33      3333.33      3333.33
      3333.33            0      3333.33      3333.33      3333.33
      3333.33            0      3333.33      3333.33      3333.33
      3333.33            0      3333.33      3333.33      3333.33
      3333.33            0      3333.33      3333.33      3333.33
      3333.33            0      3333.33      3333.33      3333.33
      3333.33            0      3333.33      3333.33      3333.33
      3333.33            0      3333.33      3333.33      3333.33
      3333.33            0      3333.33      3333.33      3333.33
      3333.33            0      3333.33      3333.33      3333.33
      3333.33            0      3333.33      3333.33      3333.33
      3333.33            0      3333.33      3333.33      3333.33
      3333.33            0      3333.33      3333.33      3333.33
      3333.33            0      3333.33      3333.33      3333.33
      3333.33            0      3333.33      3333.33      3333.33
      3333.33            0      3333.33      3333.33      3333.33
      3333.33            0      3333.33      3333.33      3333.33
      3333.33            0      3333.33      3333.33      3333.33
      3333.33            0      3333.33      3333.33      3333.33
      3333.33            0      3333.33      3333.33      3333.33
      3333.33            0      3333.33      3333.33      3333.33
      3333.33            0      3333.33      3333.33      3333.33
      3333.33            0      3333.33      3333.33      3333.33
      3333.33            0      3333.33      3333.33      3333.33
      3333.33            0      3333.33      3333.33      3333.33
      3333.33            0      3333.33      3333.33      3333.33
      3333.33            0      3333.33      3333.33      3333.33
      3333.33            0      3333.33      3333.33      3333.33
      3333.33            0      3333.33      3333.33      3333.33
      3333.33            0      3333.33      3333.33      3333.33
      3333.33            0      3333.33      3333.33      3333.33
      3333.33            0      3333.33      3333.33      3333.33
      3333.33            0      3333.33      3333.33      3333.33
      3333.33            0      3333.33      3333.33      3333.33
      3333.33            0      3333.33      3333.33      3333.33
      3333.33            0      3333.33      3333.33      3333.33
      3333.33            0      3333.33      3333.33      3333.33
      3333.33            0      3333.33      3333.33      3333.33
      3333.33            0      3333.33      3333.33      3333.33
      3333.33            0      3333.33      3333.33      3333.33
      3333.33            0      3333.33      3333.33      3333.33
      3333.33            0      3333.33      3333.33      3333.33
      3333.33            0      3333.33      3333.33      3333.33
      3333.33            0      3333.33      3333.33      3333.33
      3333.33            0      3333.33      3333.33      3333.33
      3333.33            0      3333.33      3333.33      3333.33
      3333.33            0      3333.33      3333.33      3333.33
      3333.33            0      3333.33      3333.33      3333.33
      3333.33            0      3333.33      3333.33      3333.33
      3333.33            0      3333.33      3333.33      3333.33
      3333.33            0      3333.33      3333.33      3333.33
      3333.33            0      3333.33      3333.33      3333.33
      3333.33            0      3333.33      3333.33      3333.33
      3333.33            0      3333.33      3333.33      3333.33
      3333.33            0      3333.33      3333.33      3333.33
      3333.33            0      3333.33      3333.33      3333.33
      3333.33            0      3333.33      3333.33      3333.33
      3333.33            0      3333.33      3333.33      3333.33
      3333.33            0      3333.33      3333.33      3333.33
      3333.33            0      3333.33      3333.33      3333.33
      3333.33            0      3333.33      3333.33      3333.33
      3333.33            0      3333.33      3333.33      3333.33
      3333.33            0      3333.33      3333.33      3333.33
      3333.33            0      3333.33      3333.33      3333.33
      3333.33            0      3333.33      3333.33      3333.33
      3333.33            0      3333.33      3333.33      3333.33
      3333.33            0      3333.33      3333.33      3333.33
      3333.33            0      3333.33      3333.33      3333.33
      3333.33            0      3333.33      3333.33      3333.33
      3333.33
      1.000000             1  1.000000 SS
