Conversion from Groundwater Vistas
MT3D Model
        10         1        21         1         2         2
DAY M   KG  
 T T T T T
 0 0 0 0 0 0 0 0 0 0
       100     1.000(10E12.4)                   -1     DELTA-X or C
  1.0000e-01  1.0000e-01  1.0000e-01  1.0000e-01  1.0000e-01  1.0000e-01  1.0000e-01  1.0000e-01  1.0000e-01  1.0000e-01
  1.0000e-01  1.0000e-01  1.0000e-01  1.0000e-01  1.0000e-01  1.0000e-01  1.0000e-01  1.0000e-01  1.0000e-01  1.0000e-01
  1.0000e-02
         0     1.000(10E12.4)                   -1     DELTA-Y or R
         01.0000e+00(10E12.4)                   -1     TOP OF MODEL
         01.0000e-01(10E12.4)                   -1     DELZ Layer   1
         01.0000e-01(10E12.4)                   -1     DELZ Layer   2
         01.0000e-01(10E12.4)                   -1     DELZ Layer   3
         01.0000e-01(10E12.4)                   -1     DELZ Layer   4
         01.0000e-01(10E12.4)                   -1     DELZ Layer   5
         01.0000e-01(10E12.4)                   -1     DELZ Layer   6
         01.0000e-01(10E12.4)                   -1     DELZ Layer   7
         01.0000e-01(10E12.4)                   -1     DELZ Layer   8
         01.0000e-01(10E12.4)                   -1     DELZ Layer   9
         01.0000e-01(10E12.4)                   -1     DELZ Layer  10
         03.5000e-01(10E12.4)                   -1     POROSITY Layer   1
         03.5000e-01(10E12.4)                   -1     POROSITY Layer   2
         03.5000e-01(10E12.4)                   -1     POROSITY Layer   3
         03.5000e-01(10E12.4)                   -1     POROSITY Layer   4
         03.5000e-01(10E12.4)                   -1     POROSITY Layer   5
         03.5000e-01(10E12.4)                   -1     POROSITY Layer   6
         03.5000e-01(10E12.4)                   -1     POROSITY Layer   7
         03.5000e-01(10E12.4)                   -1     POROSITY Layer   8
         03.5000e-01(10E12.4)                   -1     POROSITY Layer   9
         03.5000e-01(10E12.4)                   -1     POROSITY Layer  10
         0         1(25I3)                      -1     ICBUND Layer   1
         0         1(25I3)                      -1     ICBUND Layer   2
         0         1(25I3)                      -1     ICBUND Layer   3
         0         1(25I3)                      -1     ICBUND Layer   4
         0         1(25I3)                      -1     ICBUND Layer   5
         0         1(25I3)                      -1     ICBUND Layer   6
         0         1(25I3)                      -1     ICBUND Layer   7
         0         1(25I3)                      -1     ICBUND Layer   8
         0         1(25I3)                      -1     ICBUND Layer   9
         0         1(25I3)                      -1     ICBUND Layer  10
         0    35.000(10E12.4)                   -1     INITIAL CONCENTRATION Layer   1
         0    35.000(10E12.4)                   -1     INITIAL CONCENTRATION Layer   2
         0    35.000(10E12.4)                   -1     INITIAL CONCENTRATION Layer   3
         0    35.000(10E12.4)                   -1     INITIAL CONCENTRATION Layer   4
         0    35.000(10E12.4)                   -1     INITIAL CONCENTRATION Layer   5
         0    35.000(10E12.4)                   -1     INITIAL CONCENTRATION Layer   6
         0    35.000(10E12.4)                   -1     INITIAL CONCENTRATION Layer   7
         0    35.000(10E12.4)                   -1     INITIAL CONCENTRATION Layer   8
         0    35.000(10E12.4)                   -1     INITIAL CONCENTRATION Layer   9
         0    35.000(10E12.4)                   -1     INITIAL CONCENTRATION Layer  10
         00.0000e+00(10E12.4)                   -1     ICs for Component 2 in Layer 1
         00.0000e+00(10E12.4)                   -1     ICs for Component 2 in Layer 2
         00.0000e+00(10E12.4)                   -1     ICs for Component 2 in Layer 3
         00.0000e+00(10E12.4)                   -1     ICs for Component 2 in Layer 4
         00.0000e+00(10E12.4)                   -1     ICs for Component 2 in Layer 5
         00.0000e+00(10E12.4)                   -1     ICs for Component 2 in Layer 6
         00.0000e+00(10E12.4)                   -1     ICs for Component 2 in Layer 7
         00.0000e+00(10E12.4)                   -1     ICs for Component 2 in Layer 8
         00.0000e+00(10E12.4)                   -1     ICs for Component 2 in Layer 9
         00.0000e+00(10E12.4)                   -1     ICs for Component 2 in Layer 10
-1.000e+00 5.000e-02
         0         0         0         0         T         F
        -1
         1        10
        10         1        20
         T        10
2.0000e+00         11.0000e+00
1.0000e-04     99999 1.500e+00 0.000e+00
