# MODFLOW2000 Constant-Head Boundary Package (CHD)
        10
        10         0
         1         1        21     1.000     1.000
         2         1        21     1.000     1.000
         3         1        21     1.000     1.000
         4         1        21     1.000     1.000
         5         1        21     1.000     1.000
         6         1        21     1.000     1.000
         7         1        21     1.000     1.000
         8         1        21     1.000     1.000
         9         1        21     1.000     1.000
        10         1        21     1.000     1.000
