# CHD for MODFLOW, generated by Flopy.
       140
       140         0 # stress period 0
         5        69       179 1165.720703 1165.720703
         5        68       179 1167.066895 1167.066895
         5        68       178 1168.655518 1168.655518
         5        67       178 1170.057495 1170.057495
         5        67       177 1171.646240 1171.646240
         5        66       177 1173.048218 1173.048218
         5        66       176 1174.636963 1174.636963
         5        65       176 1176.038940 1176.038940
         5        65       175 1177.506226 1177.506226
         5        65       174 1179.029541 1179.029541
         5        64       174 1180.431519 1180.431519
         5        64       173 1182.020264 1182.020264
         5        63       173 1183.422241 1183.422241
         5        63       172 1185.010986 1185.010986
         5        62       172 1186.412964 1186.412964
         5        62       171 1188.001587 1188.001587
         5        61       171 1189.403564 1189.403564
         5        61       170 1190.562134 1190.562134
         4        37       235 1245.777100 1245.777100
         5        37       235 1245.777100 1245.777100
         4        37       234 1245.328125 1245.328125
         5        37       234 1245.328125 1245.328125
         4        38       234 1244.399170 1244.399170
         5        38       234 1244.399170 1244.399170
         4        38       233 1243.276733 1243.276733
         5        38       233 1243.276733 1243.276733
         4        39       233 1242.347900 1242.347900
         5        39       233 1242.347900 1242.347900
         4        39       232 1241.225342 1241.225342
         5        39       232 1241.225342 1241.225342
         4        40       232 1240.296509 1240.296509
         5        40       232 1240.296509 1240.296509
         4        40       231 1239.173950 1239.173950
         5        40       231 1239.173950 1239.173950
         4        41       231 1238.245117 1238.245117
         5        41       231 1238.245117 1238.245117
         4        41       230 1237.194580 1237.194580
         5        41       230 1237.194580 1237.194580
         4        41       229 1236.193726 1236.193726
         5        41       229 1236.193726 1236.193726
         4        42       229 1235.264893 1235.264893
         5        42       229 1235.264893 1235.264893
         4        42       228 1234.142334 1234.142334
         5        42       228 1234.142334 1234.142334
         4        43       228 1233.213501 1233.213501
         5        43       228 1233.213501 1233.213501
         4        43       227 1232.091064 1232.091064
         5        43       227 1232.091064 1232.091064
         4        44       227 1231.162231 1231.162231
         5        44       227 1231.162231 1231.162231
         4        44       226 1230.039673 1230.039673
         5        44       226 1230.039673 1230.039673
         4        45       226 1229.110840 1229.110840
         5        45       226 1229.110840 1229.110840
         4        45       225 1227.988281 1227.988281
         5        45       225 1227.988281 1227.988281
         4        46       225 1227.059448 1227.059448
         5        46       225 1227.059448 1227.059448
         4        46       224 1226.048462 1226.048462
         5        46       224 1226.048462 1226.048462
         4        46       223 1225.008057 1225.008057
         5        46       223 1225.008057 1225.008057
         4        47       223 1224.079224 1224.079224
         5        47       223 1224.079224 1224.079224
         4        47       222 1222.956665 1222.956665
         5        47       222 1222.956665 1222.956665
         4        48       222 1222.027832 1222.027832
         5        48       222 1222.027832 1222.027832
         4        48       221 1220.905396 1220.905396
         5        48       221 1220.905396 1220.905396
         4        49       221 1219.976440 1219.976440
         5        49       221 1219.976440 1219.976440
         4        49       220 1218.854004 1218.854004
         5        49       220 1218.854004 1218.854004
         4        50       220 1217.925171 1217.925171
         5        50       220 1217.925171 1217.925171
         4        50       219 1216.802612 1216.802612
         5        50       219 1216.802612 1216.802612
         4        51       219 1215.873779 1215.873779
         5        51       219 1215.873779 1215.873779
         4        51       218 1214.902344 1214.902344
         5        51       218 1214.902344 1214.902344
         4        51       217 1213.822388 1213.822388
         5        51       217 1213.822388 1213.822388
         4        52       217 1212.893555 1212.893555
         5        52       217 1212.893555 1212.893555
         4        52       216 1211.770996 1211.770996
         5        52       216 1211.770996 1211.770996
         4        53       216 1210.842163 1210.842163
         5        53       216 1210.842163 1210.842163
         4        53       215 1209.719604 1209.719604
         5        53       215 1209.719604 1209.719604
         4        54       215 1208.790771 1208.790771
         5        54       215 1208.790771 1208.790771
         4        54       214 1207.668335 1207.668335
         5        54       214 1207.668335 1207.668335
         4        55       214 1206.739502 1206.739502
         5        55       214 1206.739502 1206.739502
         4        55       213 1205.616943 1205.616943
         5        55       213 1205.616943 1205.616943
         4        56       213 1204.688110 1204.688110
         5        56       213 1204.688110 1204.688110
         4        56       212 1203.756348 1203.756348
         5        56       212 1203.756348 1203.756348
         4        56       211 1202.636719 1202.636719
         5        56       211 1202.636719 1202.636719
         4        57       211 1201.707886 1201.707886
         5        57       211 1201.707886 1201.707886
         4        57       210 1200.585327 1200.585327
         5        57       210 1200.585327 1200.585327
         4        58       210 1199.656494 1199.656494
         5        58       210 1199.656494 1199.656494
         4        58       209 1198.533936 1198.533936
         5        58       209 1198.533936 1198.533936
         4        59       209 1197.605103 1197.605103
         5        59       209 1197.605103 1197.605103
         4        59       208 1196.482666 1196.482666
         5        59       208 1196.482666 1196.482666
         4        60       208 1195.553711 1195.553711
         5        60       208 1195.553711 1195.553711
         4        60       207 1194.467896 1194.467896
         5        60       207 1194.467896 1194.467896
         4        60       206 1193.502441 1193.502441
         5        60       206 1193.502441 1193.502441
         4        61       206 1192.573608 1192.573608
         5        61       206 1192.573608 1192.573608
         4        61       205 1191.451050 1191.451050
         5        61       205 1191.451050 1191.451050
         4        62       205 1190.522217 1190.522217
         5        62       205 1190.522217 1190.522217
         4        62       204 1189.399658 1189.399658
         5        62       204 1189.399658 1189.399658
         4        63       204 1188.470825 1188.470825
         5        63       204 1188.470825 1188.470825
         4        63       203 1187.483032 1187.483032
         5        63       203 1187.483032 1187.483032
         5        70       186 1158.099976 1158.099976
         5        70       185 1158.099976 1158.099976
         5        71       185 1158.099976 1158.099976
         5        71       184 1158.099976 1158.099976
       140         0 # stress period 1
         5        69       179 1165.720703 1165.720703
         5        68       179 1167.066895 1167.066895
         5        68       178 1168.655518 1168.655518
         5        67       178 1170.057495 1170.057495
         5        67       177 1171.646240 1171.646240
         5        66       177 1173.048218 1173.048218
         5        66       176 1174.636963 1174.636963
         5        65       176 1176.038940 1176.038940
         5        65       175 1177.506226 1177.506226
         5        65       174 1179.029541 1179.029541
         5        64       174 1180.431519 1180.431519
         5        64       173 1182.020264 1182.020264
         5        63       173 1183.422241 1183.422241
         5        63       172 1185.010986 1185.010986
         5        62       172 1186.412964 1186.412964
         5        62       171 1188.001587 1188.001587
         5        61       171 1189.403564 1189.403564
         5        61       170 1190.562134 1190.562134
         4        37       235 1245.777100 1245.777100
         5        37       235 1245.777100 1245.777100
         4        37       234 1245.328125 1245.328125
         5        37       234 1245.328125 1245.328125
         4        38       234 1244.399170 1244.399170
         5        38       234 1244.399170 1244.399170
         4        38       233 1243.276733 1243.276733
         5        38       233 1243.276733 1243.276733
         4        39       233 1242.347900 1242.347900
         5        39       233 1242.347900 1242.347900
         4        39       232 1241.225342 1241.225342
         5        39       232 1241.225342 1241.225342
         4        40       232 1240.296509 1240.296509
         5        40       232 1240.296509 1240.296509
         4        40       231 1239.173950 1239.173950
         5        40       231 1239.173950 1239.173950
         4        41       231 1238.245117 1238.245117
         5        41       231 1238.245117 1238.245117
         4        41       230 1237.194580 1237.194580
         5        41       230 1237.194580 1237.194580
         4        41       229 1236.193726 1236.193726
         5        41       229 1236.193726 1236.193726
         4        42       229 1235.264893 1235.264893
         5        42       229 1235.264893 1235.264893
         4        42       228 1234.142334 1234.142334
         5        42       228 1234.142334 1234.142334
         4        43       228 1233.213501 1233.213501
         5        43       228 1233.213501 1233.213501
         4        43       227 1232.091064 1232.091064
         5        43       227 1232.091064 1232.091064
         4        44       227 1231.162231 1231.162231
         5        44       227 1231.162231 1231.162231
         4        44       226 1230.039673 1230.039673
         5        44       226 1230.039673 1230.039673
         4        45       226 1229.110840 1229.110840
         5        45       226 1229.110840 1229.110840
         4        45       225 1227.988281 1227.988281
         5        45       225 1227.988281 1227.988281
         4        46       225 1227.059448 1227.059448
         5        46       225 1227.059448 1227.059448
         4        46       224 1226.048462 1226.048462
         5        46       224 1226.048462 1226.048462
         4        46       223 1225.008057 1225.008057
         5        46       223 1225.008057 1225.008057
         4        47       223 1224.079224 1224.079224
         5        47       223 1224.079224 1224.079224
         4        47       222 1222.956665 1222.956665
         5        47       222 1222.956665 1222.956665
         4        48       222 1222.027832 1222.027832
         5        48       222 1222.027832 1222.027832
         4        48       221 1220.905396 1220.905396
         5        48       221 1220.905396 1220.905396
         4        49       221 1219.976440 1219.976440
         5        49       221 1219.976440 1219.976440
         4        49       220 1218.854004 1218.854004
         5        49       220 1218.854004 1218.854004
         4        50       220 1217.925171 1217.925171
         5        50       220 1217.925171 1217.925171
         4        50       219 1216.802612 1216.802612
         5        50       219 1216.802612 1216.802612
         4        51       219 1215.873779 1215.873779
         5        51       219 1215.873779 1215.873779
         4        51       218 1214.902344 1214.902344
         5        51       218 1214.902344 1214.902344
         4        51       217 1213.822388 1213.822388
         5        51       217 1213.822388 1213.822388
         4        52       217 1212.893555 1212.893555
         5        52       217 1212.893555 1212.893555
         4        52       216 1211.770996 1211.770996
         5        52       216 1211.770996 1211.770996
         4        53       216 1210.842163 1210.842163
         5        53       216 1210.842163 1210.842163
         4        53       215 1209.719604 1209.719604
         5        53       215 1209.719604 1209.719604
         4        54       215 1208.790771 1208.790771
         5        54       215 1208.790771 1208.790771
         4        54       214 1207.668335 1207.668335
         5        54       214 1207.668335 1207.668335
         4        55       214 1206.739502 1206.739502
         5        55       214 1206.739502 1206.739502
         4        55       213 1205.616943 1205.616943
         5        55       213 1205.616943 1205.616943
         4        56       213 1204.688110 1204.688110
         5        56       213 1204.688110 1204.688110
         4        56       212 1203.756348 1203.756348
         5        56       212 1203.756348 1203.756348
         4        56       211 1202.636719 1202.636719
         5        56       211 1202.636719 1202.636719
         4        57       211 1201.707886 1201.707886
         5        57       211 1201.707886 1201.707886
         4        57       210 1200.585327 1200.585327
         5        57       210 1200.585327 1200.585327
         4        58       210 1199.656494 1199.656494
         5        58       210 1199.656494 1199.656494
         4        58       209 1198.533936 1198.533936
         5        58       209 1198.533936 1198.533936
         4        59       209 1197.605103 1197.605103
         5        59       209 1197.605103 1197.605103
         4        59       208 1196.482666 1196.482666
         5        59       208 1196.482666 1196.482666
         4        60       208 1195.553711 1195.553711
         5        60       208 1195.553711 1195.553711
         4        60       207 1194.467896 1194.467896
         5        60       207 1194.467896 1194.467896
         4        60       206 1193.502441 1193.502441
         5        60       206 1193.502441 1193.502441
         4        61       206 1192.573608 1192.573608
         5        61       206 1192.573608 1192.573608
         4        61       205 1191.451050 1191.451050
         5        61       205 1191.451050 1191.451050
         4        62       205 1190.522217 1190.522217
         5        62       205 1190.522217 1190.522217
         4        62       204 1189.399658 1189.399658
         5        62       204 1189.399658 1189.399658
         4        63       204 1188.470825 1188.470825
         5        63       204 1188.470825 1188.470825
         4        63       203 1187.483032 1187.483032
         5        63       203 1187.483032 1187.483032
         5        70       186 1158.099976 1158.099976
         5        70       185 1158.099976 1158.099976
         5        71       185 1158.099976 1158.099976
         5        71       184 1158.099976 1158.099976
