# DRN for MODFLOW, generated by Flopy.
        43        53 AUX IFACE AUX CONDFACT AUX CELLGRP
        43         0 # stress period 0
         5        52       164 1191.418091 161.135345  6.000000 161.135345  6.000000
         5        52       163 1191.918091 31.552027  6.000000 31.552027  6.000000
         5       219       153 1891.503418 196.103958  6.000000 196.103958  7.000000
         5       220       153 1926.692139 157.712799  6.000000 157.712799  7.000000
         5       220       152 1966.093384 238.460510  6.000000 238.460510  7.000000
         5       221       152 2002.161255 124.195930  6.000000 124.195930  7.000000
         5       221       151 2041.160767 267.937286  6.000000 267.937286  7.000000
         5       221       150 2093.736328 260.701233  6.000000 260.701233  7.000000
         5       222       150 2121.037109 13.805008  6.000000 13.805008  7.000000
         5       222       149 2147.906982 256.366547  6.000000 256.366547  7.000000
         5       222       148 2200.271484 270.149902  6.000000 270.149902  7.000000
         5       222       147 2248.569580 215.479523  6.000000 215.479523  7.000000
         5       172       113 1720.199219 11.624028  6.000000 116.240288  1.000000
         5       172       112 1724.799438  5.090903  6.000000 50.909027  1.000000
         5       173       112 1733.339233 25.937744  6.000000 259.377441  1.000000
         5       174       112 1748.934814 30.727697  6.000000 307.276978  1.000000
         5       174       111 1757.700073  1.120734  6.000000 11.207344  1.000000
         5       175       111 1767.957397 36.148357  6.000000 361.483582  1.000000
         5       176       111 1778.767456  3.129312  6.000000 31.293118  1.000000
         5       176       110 1780.314331  2.491320  6.000000 24.913204  1.000000
         5       192       128 1623.453735 16.496683  6.000000 164.966827  2.000000
         5       191       128 1626.416992  3.425944  6.000000 34.259441  2.000000
         5       191       127 1628.232910  8.783169  6.000000 87.831688  2.000000
         5       192       127 1632.078369 17.069792  6.000000 170.697922  2.000000
         5       192       126 1636.308594 11.371295  6.000000 113.712952  2.000000
         5       203       144 1698.330933  9.490066  6.000000 94.900658  3.000000
         5       203       143 1731.263184 28.024288  6.000000 280.242889  3.000000
         5       203       142 1767.239868 12.957932  6.000000 129.579330  3.000000
         5       204       142 1791.015015 14.125269  6.000000 141.252701  3.000000
         5       204       141 1827.405884 27.328842  6.000000 273.288422  3.000000
         5       204       140 1866.370850 17.057575  6.000000 170.575760  3.000000
         5       205       140 1884.672485  3.790458  6.000000 37.904579  3.000000
         5       232       123 1679.250000 16.475426  6.000000 164.754257  4.000000
         5       191       104 1907.867676  4.130077  6.000000 41.300770  5.000000
         5       190       104 1926.326294 22.454670  6.000000 224.546692  5.000000
         5       190       105 1961.151978 27.702187  6.000000 277.021851  5.000000
         5       189       105 1981.429199  1.501818  6.000000 15.018182  5.000000
         5       189       106 2006.582275 34.724262  6.000000 347.242615  5.000000
         5       188       106 2030.885498  0.278090  6.000000  2.780899  5.000000
         5       188       107 2054.253174 33.376625  6.000000 333.766266  5.000000
         5       188       108 2095.290527 25.726788  6.000000 257.267883  5.000000
         5       187       108 2114.105225  1.370488  6.000000 13.704876  5.000000
         5       187       109 2120.028320  7.160268  6.000000 71.602684  5.000000
        43         0 # stress period 1
         5        52       164 1191.418091 161.135345  6.000000 161.135345  6.000000
         5        52       163 1191.918091 31.552027  6.000000 31.552027  6.000000
         5       219       153 1891.503418 196.103958  6.000000 196.103958  7.000000
         5       220       153 1926.692139 157.712799  6.000000 157.712799  7.000000
         5       220       152 1966.093384 238.460510  6.000000 238.460510  7.000000
         5       221       152 2002.161255 124.195930  6.000000 124.195930  7.000000
         5       221       151 2041.160767 267.937286  6.000000 267.937286  7.000000
         5       221       150 2093.736328 260.701233  6.000000 260.701233  7.000000
         5       222       150 2121.037109 13.805008  6.000000 13.805008  7.000000
         5       222       149 2147.906982 256.366547  6.000000 256.366547  7.000000
         5       222       148 2200.271484 270.149902  6.000000 270.149902  7.000000
         5       222       147 2248.569580 215.479523  6.000000 215.479523  7.000000
         5       172       113 1720.199219 11.624028  6.000000 116.240288  1.000000
         5       172       112 1724.799438  5.090903  6.000000 50.909027  1.000000
         5       173       112 1733.339233 25.937744  6.000000 259.377441  1.000000
         5       174       112 1748.934814 30.727697  6.000000 307.276978  1.000000
         5       174       111 1757.700073  1.120734  6.000000 11.207344  1.000000
         5       175       111 1767.957397 36.148357  6.000000 361.483582  1.000000
         5       176       111 1778.767456  3.129312  6.000000 31.293118  1.000000
         5       176       110 1780.314331  2.491320  6.000000 24.913204  1.000000
         5       192       128 1623.453735 16.496683  6.000000 164.966827  2.000000
         5       191       128 1626.416992  3.425944  6.000000 34.259441  2.000000
         5       191       127 1628.232910  8.783169  6.000000 87.831688  2.000000
         5       192       127 1632.078369 17.069792  6.000000 170.697922  2.000000
         5       192       126 1636.308594 11.371295  6.000000 113.712952  2.000000
         5       203       144 1698.330933  9.490066  6.000000 94.900658  3.000000
         5       203       143 1731.263184 28.024288  6.000000 280.242889  3.000000
         5       203       142 1767.239868 12.957932  6.000000 129.579330  3.000000
         5       204       142 1791.015015 14.125269  6.000000 141.252701  3.000000
         5       204       141 1827.405884 27.328842  6.000000 273.288422  3.000000
         5       204       140 1866.370850 17.057575  6.000000 170.575760  3.000000
         5       205       140 1884.672485  3.790458  6.000000 37.904579  3.000000
         5       232       123 1679.250000 16.475426  6.000000 164.754257  4.000000
         5       191       104 1907.867676  4.130077  6.000000 41.300770  5.000000
         5       190       104 1926.326294 22.454670  6.000000 224.546692  5.000000
         5       190       105 1961.151978 27.702187  6.000000 277.021851  5.000000
         5       189       105 1981.429199  1.501818  6.000000 15.018182  5.000000
         5       189       106 2006.582275 34.724262  6.000000 347.242615  5.000000
         5       188       106 2030.885498  0.278090  6.000000  2.780899  5.000000
         5       188       107 2054.253174 33.376625  6.000000 333.766266  5.000000
         5       188       108 2095.290527 25.726788  6.000000 257.267883  5.000000
         5       187       108 2114.105225  1.370488  6.000000 13.704876  5.000000
         5       187       109 2120.028320  7.160268  6.000000 71.602684  5.000000
