# Well file for MODFLOW, generated by Flopy.
         1         0
         0         0 # stress period 0
         1         0 # stress period 1
         4       157       165  0.000000
