# MODFLOW2005 Basic Package
#
#   

         0         1(25I3)                      -1     IBOUND Layer   1
         0         1(25I3)                      -1     IBOUND Layer   2
9.9900e+02
         0    10.000(10e12.4)                   -1     STARTING HEADS Layer   1
         0    30.000(10e12.4)                   -1     STARTING HEADS Layer   2
