# MODFLOW2005 Basic Package
#DUAL-DOMAIN VERIFICATION TEST PROBLEM
#1-D TRANSPORT SIMULATION
SHOWPROGRESS 
         1         1(25I3)                      -1     IBOUND Layer   1
 -1  1  1  1  1  1  1  1  1  1  1  1  1  1  1  1  1  1  1  1  1  1  1  1  1
  1  1  1  1  1  1  1  1  1  1  1  1  1  1  1  1  1  1  1  1  1  1  1  1  1
  1  1  1  1  1  1  1  1  1  1  1  1  1  1  1  1  1  1  1  1  1  1  1  1  1
  1  1  1  1  1  1  1  1  1  1  1  1  1  1  1  1  1  1  1  1  1  1  1  1  1
  1  1  1  1  1  1  1  1  1  1  1  1  1  1  1  1  1  1  1  1  1  1  1  1  1
  1  1  1  1  1  1  1  1  1  1  1  1  1  1  1  1  1  1  1  1  1  1  1  1  1
  1  1  1  1  1  1  1  1  1  1  1  1  1  1  1  1  1  1  1  1  1  1  1  1  1
  1  1  1  1  1  1  1  1  1  1  1  1  1  1  1  1  1  1  1  1  1  1  1  1  1
  1  1  1  1  1  1  1  1  1  1  1  1  1  1  1  1  1  1  1  1  1  1  1  1  1
  1  1  1  1  1  1  1  1  1  1  1  1  1  1  1  1  1  1  1  1  1  1  1  1  1
  1  1  1  1  1  1  1  1  1  1  1  1  1  1  1  1  1  1  1  1  1  1  1  1  1
  1  1  1  1  1  1  1  1  1  1  1  1  1  1  1  1  1  1  1  1  1  1  1  1 -1
9.9999e+02
         1   1.00000(10e12.4)                   -1     STARTING HEADS Layer   1
  1.0000e+01  9.7000e+00  9.7000e+00  9.7000e+00  9.7000e+00  9.7000e+00  9.7000e+00  9.7000e+00  9.7000e+00  9.7000e+00
  9.7000e+00  9.7000e+00  9.7000e+00  9.7000e+00  9.7000e+00  9.7000e+00  9.7000e+00  9.7000e+00  9.7000e+00  9.7000e+00
  9.7000e+00  9.7000e+00  9.7000e+00  9.7000e+00  9.7000e+00  9.7000e+00  9.7000e+00  9.7000e+00  9.7000e+00  9.7000e+00
  9.7000e+00  9.7000e+00  9.7000e+00  9.7000e+00  9.7000e+00  9.7000e+00  9.7000e+00  9.7000e+00  9.7000e+00  9.7000e+00
  9.7000e+00  9.7000e+00  9.7000e+00  9.7000e+00  9.7000e+00  9.7000e+00  9.7000e+00  9.7000e+00  9.7000e+00  9.7000e+00
  9.7000e+00  9.7000e+00  9.7000e+00  9.7000e+00  9.7000e+00  9.7000e+00  9.7000e+00  9.7000e+00  9.7000e+00  9.7000e+00
  9.7000e+00  9.7000e+00  9.7000e+00  9.7000e+00  9.7000e+00  9.7000e+00  9.7000e+00  9.7000e+00  9.7000e+00  9.7000e+00
  9.7000e+00  9.7000e+00  9.7000e+00  9.7000e+00  9.7000e+00  9.7000e+00  9.7000e+00  9.7000e+00  9.7000e+00  9.7000e+00
  9.7000e+00  9.7000e+00  9.7000e+00  9.7000e+00  9.7000e+00  9.7000e+00  9.7000e+00  9.7000e+00  9.7000e+00  9.7000e+00
  9.7000e+00  9.7000e+00  9.7000e+00  9.7000e+00  9.7000e+00  9.7000e+00  9.7000e+00  9.7000e+00  9.7000e+00  9.7000e+00
  9.7000e+00  9.7000e+00  9.7000e+00  9.7000e+00  9.7000e+00  9.7000e+00  9.7000e+00  9.7000e+00  9.7000e+00  9.7000e+00
  9.7000e+00  9.7000e+00  9.7000e+00  9.7000e+00  9.7000e+00  9.7000e+00  9.7000e+00  9.7000e+00  9.7000e+00  9.7000e+00
  9.7000e+00  9.7000e+00  9.7000e+00  9.7000e+00  9.7000e+00  9.7000e+00  9.7000e+00  9.7000e+00  9.7000e+00  9.7000e+00
  9.7000e+00  9.7000e+00  9.7000e+00  9.7000e+00  9.7000e+00  9.7000e+00  9.7000e+00  9.7000e+00  9.7000e+00  9.7000e+00
  9.7000e+00  9.7000e+00  9.7000e+00  9.7000e+00  9.7000e+00  9.7000e+00  9.7000e+00  9.7000e+00  9.7000e+00  9.7000e+00
  9.7000e+00  9.7000e+00  9.7000e+00  9.7000e+00  9.7000e+00  9.7000e+00  9.7000e+00  9.7000e+00  9.7000e+00  9.7000e+00
  9.7000e+00  9.7000e+00  9.7000e+00  9.7000e+00  9.7000e+00  9.7000e+00  9.7000e+00  9.7000e+00  9.7000e+00  9.7000e+00
  9.7000e+00  9.7000e+00  9.7000e+00  9.7000e+00  9.7000e+00  9.7000e+00  9.7000e+00  9.7000e+00  9.7000e+00  9.7000e+00
  9.7000e+00  9.7000e+00  9.7000e+00  9.7000e+00  9.7000e+00  9.7000e+00  9.7000e+00  9.7000e+00  9.7000e+00  9.7000e+00
  9.7000e+00  9.7000e+00  9.7000e+00  9.7000e+00  9.7000e+00  9.7000e+00  9.7000e+00  9.7000e+00  9.7000e+00  9.7000e+00
  9.7000e+00  9.7000e+00  9.7000e+00  9.7000e+00  9.7000e+00  9.7000e+00  9.7000e+00  9.7000e+00  9.7000e+00  9.7000e+00
  9.7000e+00  9.7000e+00  9.7000e+00  9.7000e+00  9.7000e+00  9.7000e+00  9.7000e+00  9.7000e+00  9.7000e+00  9.7000e+00
  9.7000e+00  9.7000e+00  9.7000e+00  9.7000e+00  9.7000e+00  9.7000e+00  9.7000e+00  9.7000e+00  9.7000e+00  9.7000e+00
  9.7000e+00  9.7000e+00  9.7000e+00  9.7000e+00  9.7000e+00  9.7000e+00  9.7000e+00  9.7000e+00  9.7000e+00  9.7000e+00
  9.7000e+00  9.7000e+00  9.7000e+00  9.7000e+00  9.7000e+00  9.7000e+00  9.7000e+00  9.7000e+00  9.7000e+00  9.7000e+00
  9.7000e+00  9.7000e+00  9.7000e+00  9.7000e+00  9.7000e+00  9.7000e+00  9.7000e+00  9.7000e+00  9.7000e+00  9.7000e+00
  9.7000e+00  9.7000e+00  9.7000e+00  9.7000e+00  9.7000e+00  9.7000e+00  9.7000e+00  9.7000e+00  9.7000e+00  9.7000e+00
  9.7000e+00  9.7000e+00  9.7000e+00  9.7000e+00  9.7000e+00  9.7000e+00  9.7000e+00  9.7000e+00  9.7000e+00  9.7000e+00
  9.7000e+00  9.7000e+00  9.7000e+00  9.7000e+00  9.7000e+00  9.7000e+00  9.7000e+00  9.7000e+00  9.7000e+00  9.7000e+00
  9.7000e+00  9.7000e+00  9.7000e+00  9.7000e+00  9.7000e+00  9.7000e+00  9.7000e+00  9.7000e+00  9.7000e+00  9.0000e+00
