# MODFLOW2000 Constant-Head Boundary Package (CHD)
       396
       396         0
         1         1         1    20.000    20.000
         1         1         2    20.000    20.000
         1         1         3    20.000    20.000
         1         1         4    20.000    20.000
         1         1         5    20.000    20.000
         1         1         6    20.000    20.000
         1         1         7    20.000    20.000
         1         1         8    20.000    20.000
         1         1         9    20.000    20.000
         1         1        10    20.000    20.000
         1         1        11    20.000    20.000
         1         1        12    20.000    20.000
         1         1        13    20.000    20.000
         1         1        14    20.000    20.000
         1         1        15    20.000    20.000
         1         1        16    20.000    20.000
         1         1        17    20.000    20.000
         1         1        18    20.000    20.000
         1         1        19    20.000    20.000
         1         1        20    20.000    20.000
         1         1        21    20.000    20.000
         1         1        22    20.000    20.000
         1         1        23    20.000    20.000
         1         1        24    20.000    20.000
         1         1        25    20.000    20.000
         1         1        26    20.000    20.000
         1         1        27    20.000    20.000
         1         1        28    20.000    20.000
         1         1        29    20.000    20.000
         1         1        30    20.000    20.000
         1         1        31    20.000    20.000
         1         1        32    20.000    20.000
         1         1        33    20.000    20.000
         1         1        34    20.000    20.000
         1         1        35    20.000    20.000
         1         1        36    20.000    20.000
         1         1        37    20.000    20.000
         1         1        38    20.000    20.000
         1         1        39    20.000    20.000
         1         1        40    20.000    20.000
         1         1        41    20.000    20.000
         1         1        42    20.000    20.000
         1         1        43    20.000    20.000
         1         1        44    20.000    20.000
         1         1        45    20.000    20.000
         1         1        46    20.000    20.000
         1         1        47    20.000    20.000
         1         1        48    20.000    20.000
         1         1        49    20.000    20.000
         1         1        50    20.000    20.000
         1         1        51    20.000    20.000
         1         1        52    20.000    20.000
         1         1        53    20.000    20.000
         1         1        54    20.000    20.000
         1         1        55    20.000    20.000
         1         1        56    20.000    20.000
         1         1        57    20.000    20.000
         1         1        58    20.000    20.000
         1         1        59    20.000    20.000
         1         1        60    20.000    20.000
         1         1        61    20.000    20.000
         1         1        62    20.000    20.000
         1         1        63    20.000    20.000
         1         1        64    20.000    20.000
         1         1        65    20.000    20.000
         1         1        66    20.000    20.000
         1         1        67    20.000    20.000
         1         1        68    20.000    20.000
         1         1        69    20.000    20.000
         1         1        70    20.000    20.000
         1         1        71    20.000    20.000
         1         1        72    20.000    20.000
         1         1        73    20.000    20.000
         1         1        74    20.000    20.000
         1         1        75    20.000    20.000
         1         1        76    20.000    20.000
         1         1        77    20.000    20.000
         1         1        78    20.000    20.000
         1         1        79    20.000    20.000
         1         1        80    20.000    20.000
         1         1        81    20.000    20.000
         1         1        82    20.000    20.000
         1         1        83    20.000    20.000
         1         1        84    20.000    20.000
         1         1        85    20.000    20.000
         1         1        86    20.000    20.000
         1         1        87    20.000    20.000
         1         1        88    20.000    20.000
         1         1        89    20.000    20.000
         1         1        90    20.000    20.000
         1         1        91    20.000    20.000
         1         1        92    20.000    20.000
         1         1        93    20.000    20.000
         1         1        94    20.000    20.000
         1         1        95    20.000    20.000
         1         1        96    20.000    20.000
         1         1        97    20.000    20.000
         1         1        98    20.000    20.000
         1         1        99    20.000    20.000
         1         1       100    20.000    20.000
         1         2         1    20.000    20.000
         1         2       100    20.000    20.000
         1         3         1    20.000    20.000
         1         3       100    20.000    20.000
         1         4         1    20.000    20.000
         1         4       100    20.000    20.000
         1         5         1    20.000    20.000
         1         5       100    20.000    20.000
         1         6         1    20.000    20.000
         1         6       100    20.000    20.000
         1         7         1    20.000    20.000
         1         7       100    20.000    20.000
         1         8         1    20.000    20.000
         1         8       100    20.000    20.000
         1         9         1    20.000    20.000
         1         9       100    20.000    20.000
         1        10         1    20.000    20.000
         1        10       100    20.000    20.000
         1        11         1    20.000    20.000
         1        11       100    20.000    20.000
         1        12         1    20.000    20.000
         1        12       100    20.000    20.000
         1        13         1    20.000    20.000
         1        13       100    20.000    20.000
         1        14         1    20.000    20.000
         1        14       100    20.000    20.000
         1        15         1    20.000    20.000
         1        15       100    20.000    20.000
         1        16         1    20.000    20.000
         1        16       100    20.000    20.000
         1        17         1    20.000    20.000
         1        17       100    20.000    20.000
         1        18         1    20.000    20.000
         1        18       100    20.000    20.000
         1        19         1    20.000    20.000
         1        19       100    20.000    20.000
         1        20         1    20.000    20.000
         1        20       100    20.000    20.000
         1        21         1    20.000    20.000
         1        21       100    20.000    20.000
         1        22         1    20.000    20.000
         1        22       100    20.000    20.000
         1        23         1    20.000    20.000
         1        23       100    20.000    20.000
         1        24         1    20.000    20.000
         1        24       100    20.000    20.000
         1        25         1    20.000    20.000
         1        25       100    20.000    20.000
         1        26         1    20.000    20.000
         1        26       100    20.000    20.000
         1        27         1    20.000    20.000
         1        27       100    20.000    20.000
         1        28         1    20.000    20.000
         1        28       100    20.000    20.000
         1        29         1    20.000    20.000
         1        29       100    20.000    20.000
         1        30         1    20.000    20.000
         1        30       100    20.000    20.000
         1        31         1    20.000    20.000
         1        31       100    20.000    20.000
         1        32         1    20.000    20.000
         1        32       100    20.000    20.000
         1        33         1    20.000    20.000
         1        33       100    20.000    20.000
         1        34         1    20.000    20.000
         1        34       100    20.000    20.000
         1        35         1    20.000    20.000
         1        35       100    20.000    20.000
         1        36         1    20.000    20.000
         1        36       100    20.000    20.000
         1        37         1    20.000    20.000
         1        37       100    20.000    20.000
         1        38         1    20.000    20.000
         1        38       100    20.000    20.000
         1        39         1    20.000    20.000
         1        39       100    20.000    20.000
         1        40         1    20.000    20.000
         1        40       100    20.000    20.000
         1        41         1    20.000    20.000
         1        41       100    20.000    20.000
         1        42         1    20.000    20.000
         1        42       100    20.000    20.000
         1        43         1    20.000    20.000
         1        43       100    20.000    20.000
         1        44         1    20.000    20.000
         1        44       100    20.000    20.000
         1        45         1    20.000    20.000
         1        45       100    20.000    20.000
         1        46         1    20.000    20.000
         1        46       100    20.000    20.000
         1        47         1    20.000    20.000
         1        47       100    20.000    20.000
         1        48         1    20.000    20.000
         1        48       100    20.000    20.000
         1        49         1    20.000    20.000
         1        49       100    20.000    20.000
         1        50         1    20.000    20.000
         1        50       100    20.000    20.000
         1        51         1    20.000    20.000
         1        51       100    20.000    20.000
         1        52         1    20.000    20.000
         1        52       100    20.000    20.000
         1        53         1    20.000    20.000
         1        53       100    20.000    20.000
         1        54         1    20.000    20.000
         1        54       100    20.000    20.000
         1        55         1    20.000    20.000
         1        55       100    20.000    20.000
         1        56         1    20.000    20.000
         1        56       100    20.000    20.000
         1        57         1    20.000    20.000
         1        57       100    20.000    20.000
         1        58         1    20.000    20.000
         1        58       100    20.000    20.000
         1        59         1    20.000    20.000
         1        59       100    20.000    20.000
         1        60         1    20.000    20.000
         1        60       100    20.000    20.000
         1        61         1    20.000    20.000
         1        61       100    20.000    20.000
         1        62         1    20.000    20.000
         1        62       100    20.000    20.000
         1        63         1    20.000    20.000
         1        63       100    20.000    20.000
         1        64         1    20.000    20.000
         1        64       100    20.000    20.000
         1        65         1    20.000    20.000
         1        65       100    20.000    20.000
         1        66         1    20.000    20.000
         1        66       100    20.000    20.000
         1        67         1    20.000    20.000
         1        67       100    20.000    20.000
         1        68         1    20.000    20.000
         1        68       100    20.000    20.000
         1        69         1    20.000    20.000
         1        69       100    20.000    20.000
         1        70         1    20.000    20.000
         1        70       100    20.000    20.000
         1        71         1    20.000    20.000
         1        71       100    20.000    20.000
         1        72         1    20.000    20.000
         1        72       100    20.000    20.000
         1        73         1    20.000    20.000
         1        73       100    20.000    20.000
         1        74         1    20.000    20.000
         1        74       100    20.000    20.000
         1        75         1    20.000    20.000
         1        75       100    20.000    20.000
         1        76         1    20.000    20.000
         1        76       100    20.000    20.000
         1        77         1    20.000    20.000
         1        77       100    20.000    20.000
         1        78         1    20.000    20.000
         1        78       100    20.000    20.000
         1        79         1    20.000    20.000
         1        79       100    20.000    20.000
         1        80         1    20.000    20.000
         1        80       100    20.000    20.000
         1        81         1    20.000    20.000
         1        81       100    20.000    20.000
         1        82         1    20.000    20.000
         1        82       100    20.000    20.000
         1        83         1    20.000    20.000
         1        83       100    20.000    20.000
         1        84         1    20.000    20.000
         1        84       100    20.000    20.000
         1        85         1    20.000    20.000
         1        85       100    20.000    20.000
         1        86         1    20.000    20.000
         1        86       100    20.000    20.000
         1        87         1    20.000    20.000
         1        87       100    20.000    20.000
         1        88         1    20.000    20.000
         1        88       100    20.000    20.000
         1        89         1    20.000    20.000
         1        89       100    20.000    20.000
         1        90         1    20.000    20.000
         1        90       100    20.000    20.000
         1        91         1    20.000    20.000
         1        91       100    20.000    20.000
         1        92         1    20.000    20.000
         1        92       100    20.000    20.000
         1        93         1    20.000    20.000
         1        93       100    20.000    20.000
         1        94         1    20.000    20.000
         1        94       100    20.000    20.000
         1        95         1    20.000    20.000
         1        95       100    20.000    20.000
         1        96         1    20.000    20.000
         1        96       100    20.000    20.000
         1        97         1    20.000    20.000
         1        97       100    20.000    20.000
         1        98         1    20.000    20.000
         1        98       100    20.000    20.000
         1        99         1    20.000    20.000
         1        99       100    20.000    20.000
         1       100         1    20.000    20.000
         1       100         2    20.000    20.000
         1       100         3    20.000    20.000
         1       100         4    20.000    20.000
         1       100         5    20.000    20.000
         1       100         6    20.000    20.000
         1       100         7    20.000    20.000
         1       100         8    20.000    20.000
         1       100         9    20.000    20.000
         1       100        10    20.000    20.000
         1       100        11    20.000    20.000
         1       100        12    20.000    20.000
         1       100        13    20.000    20.000
         1       100        14    20.000    20.000
         1       100        15    20.000    20.000
         1       100        16    20.000    20.000
         1       100        17    20.000    20.000
         1       100        18    20.000    20.000
         1       100        19    20.000    20.000
         1       100        20    20.000    20.000
         1       100        21    20.000    20.000
         1       100        22    20.000    20.000
         1       100        23    20.000    20.000
         1       100        24    20.000    20.000
         1       100        25    20.000    20.000
         1       100        26    20.000    20.000
         1       100        27    20.000    20.000
         1       100        28    20.000    20.000
         1       100        29    20.000    20.000
         1       100        30    20.000    20.000
         1       100        31    20.000    20.000
         1       100        32    20.000    20.000
         1       100        33    20.000    20.000
         1       100        34    20.000    20.000
         1       100        35    20.000    20.000
         1       100        36    20.000    20.000
         1       100        37    20.000    20.000
         1       100        38    20.000    20.000
         1       100        39    20.000    20.000
         1       100        40    20.000    20.000
         1       100        41    20.000    20.000
         1       100        42    20.000    20.000
         1       100        43    20.000    20.000
         1       100        44    20.000    20.000
         1       100        45    20.000    20.000
         1       100        46    20.000    20.000
         1       100        47    20.000    20.000
         1       100        48    20.000    20.000
         1       100        49    20.000    20.000
         1       100        50    20.000    20.000
         1       100        51    20.000    20.000
         1       100        52    20.000    20.000
         1       100        53    20.000    20.000
         1       100        54    20.000    20.000
         1       100        55    20.000    20.000
         1       100        56    20.000    20.000
         1       100        57    20.000    20.000
         1       100        58    20.000    20.000
         1       100        59    20.000    20.000
         1       100        60    20.000    20.000
         1       100        61    20.000    20.000
         1       100        62    20.000    20.000
         1       100        63    20.000    20.000
         1       100        64    20.000    20.000
         1       100        65    20.000    20.000
         1       100        66    20.000    20.000
         1       100        67    20.000    20.000
         1       100        68    20.000    20.000
         1       100        69    20.000    20.000
         1       100        70    20.000    20.000
         1       100        71    20.000    20.000
         1       100        72    20.000    20.000
         1       100        73    20.000    20.000
         1       100        74    20.000    20.000
         1       100        75    20.000    20.000
         1       100        76    20.000    20.000
         1       100        77    20.000    20.000
         1       100        78    20.000    20.000
         1       100        79    20.000    20.000
         1       100        80    20.000    20.000
         1       100        81    20.000    20.000
         1       100        82    20.000    20.000
         1       100        83    20.000    20.000
         1       100        84    20.000    20.000
         1       100        85    20.000    20.000
         1       100        86    20.000    20.000
         1       100        87    20.000    20.000
         1       100        88    20.000    20.000
         1       100        89    20.000    20.000
         1       100        90    20.000    20.000
         1       100        91    20.000    20.000
         1       100        92    20.000    20.000
         1       100        93    20.000    20.000
         1       100        94    20.000    20.000
         1       100        95    20.000    20.000
         1       100        96    20.000    20.000
         1       100        97    20.000    20.000
         1       100        98    20.000    20.000
         1       100        99    20.000    20.000
         1       100       100    20.000    20.000
