# MODFLOW2000 Discretization File
 1  100  100  1  4  0
 0
         0   100.000(10E12.4)                    0     DELTA-X or C
         0   100.000(10E12.4)                    0     DELTA-Y or R
         0    15.000(10e12.4)                   -1     TOP of Model
         00.0000e+00(10e12.4)                   -1     BOTTOM of Layer   1
  5000.000000  50  1.000000  SS
